{
   "completed_at" : "20200426T113614Z",
   "completed_status" : "Success",
   "created_at" : "2020-04-26 11:33:39 +0000",
   "current_step" : 7,
   "description" : "",
   "eplusout_err" : "Program Version,EnergyPlus, Version 9.2.0-921312fa1d, YMD=2020.04.26 11:34,\n   ************* Beginning Zone Sizing Calculations\n   ** Warning ** ProcessScheduleInput: DecodeHHMMField, Invalid \"until\" field value is not a multiple of the minutes for each timestep: 08:03\n   **   ~~~   ** Other errors may result. Occurred in Day Schedule=8 ZONE VAV WITH PFP BOXES AND REHEAT OCC SCH DEFAULT\n   ** Warning ** ProcessScheduleInput: DecodeHHMMField, Invalid \"until\" field value is not a multiple of the minutes for each timestep: 18:49\n   **   ~~~   ** Other errors may result. Occurred in Day Schedule=8 ZONE VAV WITH PFP BOXES AND REHEAT OCC SCH DEFAULT\n   ** Warning ** ProcessScheduleInput: DecodeHHMMField, Invalid \"until\" field value is not a multiple of the minutes for each timestep: 12:59\n   **   ~~~   ** Other errors may result. Occurred in Day Schedule=8 ZONE VAV WITH PFP BOXES AND REHEAT OCC SCH SATURDAY\n   ** Warning ** ProcessScheduleInput: DecodeHHMMField, Invalid \"until\" field value is not a multiple of the minutes for each timestep: 08:03\n   **   ~~~   ** Other errors may result. Occurred in Day Schedule=9 ZONE VAV WITH PFP BOXES AND REHEAT OCC SCH DEFAULT\n   ** Warning ** ProcessScheduleInput: DecodeHHMMField, Invalid \"until\" field value is not a multiple of the minutes for each timestep: 18:49\n   **   ~~~   ** Other errors may result. Occurred in Day Schedule=9 ZONE VAV WITH PFP BOXES AND REHEAT OCC SCH DEFAULT\n   ** Warning ** ProcessScheduleInput: DecodeHHMMField, Invalid \"until\" field value is not a multiple of the minutes for each timestep: 12:59\n   **   ~~~   ** Other errors may result. Occurred in Day Schedule=9 ZONE VAV WITH PFP BOXES AND REHEAT OCC SCH SATURDAY\n   ** Warning ** ProcessScheduleInput: DecodeHHMMField, Invalid \"until\" field value is not a multiple of the minutes for each timestep: 08:03\n   **   ~~~   ** Other errors may result. Occurred in Day Schedule=9 ZONE VAV WITH PFP BOXES AND REHEAT 1 OCC SCH DEFAULT\n   ** Warning ** ProcessScheduleInput: DecodeHHMMField, Invalid \"until\" field value is not a multiple of the minutes for each timestep: 18:49\n   **   ~~~   ** Other errors may result. Occurred in Day Schedule=9 ZONE VAV WITH PFP BOXES AND REHEAT 1 OCC SCH DEFAULT\n   ** Warning ** ProcessScheduleInput: DecodeHHMMField, Invalid \"until\" field value is not a multiple of the minutes for each timestep: 12:59\n   **   ~~~   ** Other errors may result. Occurred in Day Schedule=9 ZONE VAV WITH PFP BOXES AND REHEAT 1 OCC SCH SATURDAY\n   ** Warning ** ProcessScheduleInput: DecodeHHMMField, Invalid \"until\" field value is not a multiple of the minutes for each timestep: 08:03\n   **   ~~~   ** Other errors may result. Occurred in Day Schedule=ZONE OFFICE WHOLEBUILDING - MD OFFICE B  - STORY GROUND PSZ-HP OCC SCH DEFAULT\n   ** Warning ** ProcessScheduleInput: DecodeHHMMField, Invalid \"until\" field value is not a multiple of the minutes for each timestep: 18:49\n   **   ~~~   ** Other errors may result. Occurred in Day Schedule=ZONE OFFICE WHOLEBUILDING - MD OFFICE B  - STORY GROUND PSZ-HP OCC SCH DEFAULT\n   ** Warning ** ProcessScheduleInput: DecodeHHMMField, Invalid \"until\" field value is not a multiple of the minutes for each timestep: 12:59\n   **   ~~~   ** Other errors may result. Occurred in Day Schedule=ZONE OFFICE WHOLEBUILDING - MD OFFICE B  - STORY GROUND PSZ-HP OCC SCH SATURDAY\n   ** Warning ** ProcessScheduleInput: Schedule:Day:Interval=\"27 SPACE(S) OCC SCH DEFAULT\", Blank Schedule Type Limits Name input -- will not be validated.\n   ** Warning ** ProcessScheduleInput: Schedule:Day:Interval=\"27 SPACE(S) OCC SCH SATURDAY\", Blank Schedule Type Limits Name input -- will not be validated.\n   ** Warning ** ProcessScheduleInput: Schedule:Day:Interval=\"27 SPACE(S) OCC SCH SUMMER DESIGN DAY\", Blank Schedule Type Limits Name input -- will not be validated.\n   ** Warning ** ProcessScheduleInput: Schedule:Day:Interval=\"27 SPACE(S) OCC SCH SUNDAY\", Blank Schedule Type Limits Name input -- will not be validated.\n   ** Warning ** ProcessScheduleInput: Schedule:Day:Interval=\"27 SPACE(S) OCC SCH WINTER DESIGN DAY\", Blank Schedule Type Limits Name input -- will not be validated.\n   ** Warning ** ProcessScheduleInput: DecodeHHMMField, Invalid \"until\" field value is not a multiple of the minutes for each timestep: 09:14\n   **   ~~~   ** Other errors may result. Occurred in Day Schedule=BUILDING HOURS OF OPERATION NONRESIDENTIAL DEFAULT\n   ** Warning ** ProcessScheduleInput: DecodeHHMMField, Invalid \"until\" field value is not a multiple of the minutes for each timestep: 18:39\n   **   ~~~   ** Other errors may result. Occurred in Day Schedule=BUILDING HOURS OF OPERATION NONRESIDENTIAL DEFAULT\n   ** Warning ** ProcessScheduleInput: Schedule:Year=\"ELEVATOR SCHEDULE\", Blank Schedule Type Limits Name input -- will not be validated.\n   ** Warning ** ProcessScheduleInput: Schedule:Constant=\"ALWAYS OFF DISCRETE\", Blank Schedule Type Limits Name input -- will not be validated.\n   ** Warning ** ProcessScheduleInput: Schedule:Constant=\"ALWAYS ON CONTINUOUS\", Blank Schedule Type Limits Name input -- will not be validated.\n   ** Warning ** CheckUsedConstructions: There are 11 nominally unused constructions in input.\n   **   ~~~   ** For explicit details on each unused construction, use Output:Diagnostics,DisplayExtraWarnings;\n   ** Warning ** GetInternalHeatGains: People=\"OFFICE WHOLEBUILDING - MD OFFICE PEOPLE\" has comfort related schedules but no thermal comfort model selected.\n   **   ~~~   ** If schedules are specified for air velocity, clothing insulation, and/or work efficiency but no thermal comfort\n   **   ~~~   ** thermal comfort model is selected, the schedules will be listed as unused schedules in the .err file.\n   **   ~~~   ** To avoid these errors, select a valid thermal comfort model or eliminate these schedules in the PEOPLE input.\n   ** Warning ** GetInternalHeatGains: People=\"OFFICE WHOLEBUILDING - MD OFFICE PEOPLE\" has comfort related schedules but no thermal comfort model selected.\n   **   ~~~   ** If schedules are specified for air velocity, clothing insulation, and/or work efficiency but no thermal comfort\n   **   ~~~   ** thermal comfort model is selected, the schedules will be listed as unused schedules in the .err file.\n   **   ~~~   ** To avoid these errors, select a valid thermal comfort model or eliminate these schedules in the PEOPLE input.\n   ** Warning ** GetInternalHeatGains: People=\"OFFICE WHOLEBUILDING - MD OFFICE PEOPLE\" has comfort related schedules but no thermal comfort model selected.\n   **   ~~~   ** If schedules are specified for air velocity, clothing insulation, and/or work efficiency but no thermal comfort\n   **   ~~~   ** thermal comfort model is selected, the schedules will be listed as unused schedules in the .err file.\n   **   ~~~   ** To avoid these errors, select a valid thermal comfort model or eliminate these schedules in the PEOPLE input.\n   ** Warning ** GetInternalHeatGains: People=\"OFFICE WHOLEBUILDING - MD OFFICE PEOPLE\" has comfort related schedules but no thermal comfort model selected.\n   **   ~~~   ** If schedules are specified for air velocity, clothing insulation, and/or work efficiency but no thermal comfort\n   **   ~~~   ** thermal comfort model is selected, the schedules will be listed as unused schedules in the .err file.\n   **   ~~~   ** To avoid these errors, select a valid thermal comfort model or eliminate these schedules in the PEOPLE input.\n   ** Warning ** GetInternalHeatGains: People=\"OFFICE WHOLEBUILDING - MD OFFICE PEOPLE\" has comfort related schedules but no thermal comfort model selected.\n   **   ~~~   ** If schedules are specified for air velocity, clothing insulation, and/or work efficiency but no thermal comfort\n   **   ~~~   ** thermal comfort model is selected, the schedules will be listed as unused schedules in the .err file.\n   **   ~~~   ** To avoid these errors, select a valid thermal comfort model or eliminate these schedules in the PEOPLE input.\n   ** Warning ** GetInternalHeatGains: People=\"OFFICE WHOLEBUILDING - MD OFFICE PEOPLE\" has comfort related schedules but no thermal comfort model selected.\n   **   ~~~   ** If schedules are specified for air velocity, clothing insulation, and/or work efficiency but no thermal comfort\n   **   ~~~   ** thermal comfort model is selected, the schedules will be listed as unused schedules in the .err file.\n   **   ~~~   ** To avoid these errors, select a valid thermal comfort model or eliminate these schedules in the PEOPLE input.\n   ** Warning ** GetInternalHeatGains: People=\"OFFICE WHOLEBUILDING - MD OFFICE PEOPLE\" has comfort related schedules but no thermal comfort model selected.\n   **   ~~~   ** If schedules are specified for air velocity, clothing insulation, and/or work efficiency but no thermal comfort\n   **   ~~~   ** thermal comfort model is selected, the schedules will be listed as unused schedules in the .err file.\n   **   ~~~   ** To avoid these errors, select a valid thermal comfort model or eliminate these schedules in the PEOPLE input.\n   ** Warning ** GetInternalHeatGains: People=\"OFFICE WHOLEBUILDING - MD OFFICE PEOPLE\" has comfort related schedules but no thermal comfort model selected.\n   **   ~~~   ** If schedules are specified for air velocity, clothing insulation, and/or work efficiency but no thermal comfort\n   **   ~~~   ** thermal comfort model is selected, the schedules will be listed as unused schedules in the .err file.\n   **   ~~~   ** To avoid these errors, select a valid thermal comfort model or eliminate these schedules in the PEOPLE input.\n   ** Warning ** GetInternalHeatGains: People=\"OFFICE WHOLEBUILDING - MD OFFICE PEOPLE\" has comfort related schedules but no thermal comfort model selected.\n   **   ~~~   ** If schedules are specified for air velocity, clothing insulation, and/or work efficiency but no thermal comfort\n   **   ~~~   ** thermal comfort model is selected, the schedules will be listed as unused schedules in the .err file.\n   **   ~~~   ** To avoid these errors, select a valid thermal comfort model or eliminate these schedules in the PEOPLE input.\n   ** Warning ** GetInternalHeatGains: People=\"OFFICE WHOLEBUILDING - MD OFFICE PEOPLE\" has comfort related schedules but no thermal comfort model selected.\n   **   ~~~   ** If schedules are specified for air velocity, clothing insulation, and/or work efficiency but no thermal comfort\n   **   ~~~   ** thermal comfort model is selected, the schedules will be listed as unused schedules in the .err file.\n   **   ~~~   ** To avoid these errors, select a valid thermal comfort model or eliminate these schedules in the PEOPLE input.\n   ** Warning ** GetInternalHeatGains: People=\"OFFICE WHOLEBUILDING - MD OFFICE PEOPLE\" has comfort related schedules but no thermal comfort model selected.\n   **   ~~~   ** If schedules are specified for air velocity, clothing insulation, and/or work efficiency but no thermal comfort\n   **   ~~~   ** thermal comfort model is selected, the schedules will be listed as unused schedules in the .err file.\n   **   ~~~   ** To avoid these errors, select a valid thermal comfort model or eliminate these schedules in the PEOPLE input.\n   ** Warning ** GetInternalHeatGains: People=\"OFFICE WHOLEBUILDING - MD OFFICE PEOPLE\" has comfort related schedules but no thermal comfort model selected.\n   **   ~~~   ** If schedules are specified for air velocity, clothing insulation, and/or work efficiency but no thermal comfort\n   **   ~~~   ** thermal comfort model is selected, the schedules will be listed as unused schedules in the .err file.\n   **   ~~~   ** To avoid these errors, select a valid thermal comfort model or eliminate these schedules in the PEOPLE input.\n   ** Warning ** GetInternalHeatGains: People=\"OFFICE WHOLEBUILDING - MD OFFICE PEOPLE\" has comfort related schedules but no thermal comfort model selected.\n   **   ~~~   ** If schedules are specified for air velocity, clothing insulation, and/or work efficiency but no thermal comfort\n   **   ~~~   ** thermal comfort model is selected, the schedules will be listed as unused schedules in the .err file.\n   **   ~~~   ** To avoid these errors, select a valid thermal comfort model or eliminate these schedules in the PEOPLE input.\n   ** Warning ** GetInternalHeatGains: People=\"OFFICE WHOLEBUILDING - MD OFFICE PEOPLE\" has comfort related schedules but no thermal comfort model selected.\n   **   ~~~   ** If schedules are specified for air velocity, clothing insulation, and/or work efficiency but no thermal comfort\n   **   ~~~   ** thermal comfort model is selected, the schedules will be listed as unused schedules in the .err file.\n   **   ~~~   ** To avoid these errors, select a valid thermal comfort model or eliminate these schedules in the PEOPLE input.\n   ** Warning ** GetInternalHeatGains: People=\"OFFICE WHOLEBUILDING - MD OFFICE PEOPLE\" has comfort related schedules but no thermal comfort model selected.\n   **   ~~~   ** If schedules are specified for air velocity, clothing insulation, and/or work efficiency but no thermal comfort\n   **   ~~~   ** thermal comfort model is selected, the schedules will be listed as unused schedules in the .err file.\n   **   ~~~   ** To avoid these errors, select a valid thermal comfort model or eliminate these schedules in the PEOPLE input.\n   ** Warning ** GetInternalHeatGains: People=\"OFFICE WHOLEBUILDING - MD OFFICE PEOPLE\" has comfort related schedules but no thermal comfort model selected.\n   **   ~~~   ** If schedules are specified for air velocity, clothing insulation, and/or work efficiency but no thermal comfort\n   **   ~~~   ** thermal comfort model is selected, the schedules will be listed as unused schedules in the .err file.\n   **   ~~~   ** To avoid these errors, select a valid thermal comfort model or eliminate these schedules in the PEOPLE input.\n   ** Warning ** GetInternalHeatGains: People=\"OFFICE WHOLEBUILDING - MD OFFICE PEOPLE\" has comfort related schedules but no thermal comfort model selected.\n   **   ~~~   ** If schedules are specified for air velocity, clothing insulation, and/or work efficiency but no thermal comfort\n   **   ~~~   ** thermal comfort model is selected, the schedules will be listed as unused schedules in the .err file.\n   **   ~~~   ** To avoid these errors, select a valid thermal comfort model or eliminate these schedules in the PEOPLE input.\n   ** Warning ** GetInternalHeatGains: People=\"OFFICE WHOLEBUILDING - MD OFFICE PEOPLE\" has comfort related schedules but no thermal comfort model selected.\n   **   ~~~   ** If schedules are specified for air velocity, clothing insulation, and/or work efficiency but no thermal comfort\n   **   ~~~   ** thermal comfort model is selected, the schedules will be listed as unused schedules in the .err file.\n   **   ~~~   ** To avoid these errors, select a valid thermal comfort model or eliminate these schedules in the PEOPLE input.\n   ** Warning ** GetInternalHeatGains: People=\"OFFICE WHOLEBUILDING - MD OFFICE PEOPLE\" has comfort related schedules but no thermal comfort model selected.\n   **   ~~~   ** If schedules are specified for air velocity, clothing insulation, and/or work efficiency but no thermal comfort\n   **   ~~~   ** thermal comfort model is selected, the schedules will be listed as unused schedules in the .err file.\n   **   ~~~   ** To avoid these errors, select a valid thermal comfort model or eliminate these schedules in the PEOPLE input.\n   ** Warning ** GetInternalHeatGains: People=\"OFFICE WHOLEBUILDING - MD OFFICE PEOPLE\" has comfort related schedules but no thermal comfort model selected.\n   **   ~~~   ** If schedules are specified for air velocity, clothing insulation, and/or work efficiency but no thermal comfort\n   **   ~~~   ** thermal comfort model is selected, the schedules will be listed as unused schedules in the .err file.\n   **   ~~~   ** To avoid these errors, select a valid thermal comfort model or eliminate these schedules in the PEOPLE input.\n   ** Warning ** GetInternalHeatGains: People=\"OFFICE WHOLEBUILDING - MD OFFICE PEOPLE\" has comfort related schedules but no thermal comfort model selected.\n   **   ~~~   ** If schedules are specified for air velocity, clothing insulation, and/or work efficiency but no thermal comfort\n   **   ~~~   ** thermal comfort model is selected, the schedules will be listed as unused schedules in the .err file.\n   **   ~~~   ** To avoid these errors, select a valid thermal comfort model or eliminate these schedules in the PEOPLE input.\n   ** Warning ** GetInternalHeatGains: People=\"OFFICE WHOLEBUILDING - MD OFFICE PEOPLE\" has comfort related schedules but no thermal comfort model selected.\n   **   ~~~   ** If schedules are specified for air velocity, clothing insulation, and/or work efficiency but no thermal comfort\n   **   ~~~   ** thermal comfort model is selected, the schedules will be listed as unused schedules in the .err file.\n   **   ~~~   ** To avoid these errors, select a valid thermal comfort model or eliminate these schedules in the PEOPLE input.\n   ** Warning ** GetInternalHeatGains: People=\"OFFICE WHOLEBUILDING - MD OFFICE PEOPLE\" has comfort related schedules but no thermal comfort model selected.\n   **   ~~~   ** If schedules are specified for air velocity, clothing insulation, and/or work efficiency but no thermal comfort\n   **   ~~~   ** thermal comfort model is selected, the schedules will be listed as unused schedules in the .err file.\n   **   ~~~   ** To avoid these errors, select a valid thermal comfort model or eliminate these schedules in the PEOPLE input.\n   ** Warning ** GetInternalHeatGains: People=\"OFFICE WHOLEBUILDING - MD OFFICE PEOPLE\" has comfort related schedules but no thermal comfort model selected.\n   **   ~~~   ** If schedules are specified for air velocity, clothing insulation, and/or work efficiency but no thermal comfort\n   **   ~~~   ** thermal comfort model is selected, the schedules will be listed as unused schedules in the .err file.\n   **   ~~~   ** To avoid these errors, select a valid thermal comfort model or eliminate these schedules in the PEOPLE input.\n   ** Warning ** GetInternalHeatGains: People=\"OFFICE WHOLEBUILDING - MD OFFICE PEOPLE\" has comfort related schedules but no thermal comfort model selected.\n   **   ~~~   ** If schedules are specified for air velocity, clothing insulation, and/or work efficiency but no thermal comfort\n   **   ~~~   ** thermal comfort model is selected, the schedules will be listed as unused schedules in the .err file.\n   **   ~~~   ** To avoid these errors, select a valid thermal comfort model or eliminate these schedules in the PEOPLE input.\n   ** Warning ** GetInternalHeatGains: People=\"OFFICE WHOLEBUILDING - MD OFFICE PEOPLE\" has comfort related schedules but no thermal comfort model selected.\n   **   ~~~   ** If schedules are specified for air velocity, clothing insulation, and/or work efficiency but no thermal comfort\n   **   ~~~   ** thermal comfort model is selected, the schedules will be listed as unused schedules in the .err file.\n   **   ~~~   ** To avoid these errors, select a valid thermal comfort model or eliminate these schedules in the PEOPLE input.\n   ** Warning ** GetInternalHeatGains: People=\"OFFICE WHOLEBUILDING - MD OFFICE PEOPLE\" has comfort related schedules but no thermal comfort model selected.\n   **   ~~~   ** If schedules are specified for air velocity, clothing insulation, and/or work efficiency but no thermal comfort\n   **   ~~~   ** thermal comfort model is selected, the schedules will be listed as unused schedules in the .err file.\n   **   ~~~   ** To avoid these errors, select a valid thermal comfort model or eliminate these schedules in the PEOPLE input.\n   ** Warning ** GetInternalHeatGains: ElectricEquipment Combination of ZoneList and Object Name generate a name too long.\n   **   ~~~   ** Object Name=\"OFFICE WHOLEBUILDING - MD OFFICE ELEC EQUIP\".\n   **   ~~~   ** ZoneList/Zone Name=\"ZONE OFFICE WHOLEBUILDING - MD OFFICE A END_A - STORY GROUND\".\n   **   ~~~   ** Item length=[103] > Maximum Length=[100]. You may need to shorten the names.\n   **   ~~~   ** Shortening the Object Name by [4] characters will assure uniqueness for this ZoneList.\n   **   ~~~   ** name that will be used (may be needed in reporting)=\"ZONE OFFICE WHOLEBUILDING - MD OFFICE A END_A - STORY GROUND OFFICE WHOLEBUILDING - MD OFFICE ELEC EQUIP\".\n   ** Warning ** GetInternalHeatGains: ElectricEquipment Combination of ZoneList and Object Name generate a name too long.\n   **   ~~~   ** Object Name=\"OFFICE WHOLEBUILDING - MD OFFICE ELEC EQUIP\".\n   **   ~~~   ** ZoneList/Zone Name=\"ZONE OFFICE WHOLEBUILDING - MD OFFICE A END_B - STORY GROUND\".\n   **   ~~~   ** Item length=[103] > Maximum Length=[100]. You may need to shorten the names.\n   **   ~~~   ** Shortening the Object Name by [4] characters will assure uniqueness for this ZoneList.\n   **   ~~~   ** name that will be used (may be needed in reporting)=\"ZONE OFFICE WHOLEBUILDING - MD OFFICE A END_B - STORY GROUND OFFICE WHOLEBUILDING - MD OFFICE ELEC EQUIP\".\n   ** Warning ** GetInternalHeatGains: ElectricEquipment Combination of ZoneList and Object Name generate a name too long.\n   **   ~~~   ** Object Name=\"OFFICE WHOLEBUILDING - MD OFFICE ELEC EQUIP\".\n   **   ~~~   ** ZoneList/Zone Name=\"ZONE OFFICE WHOLEBUILDING - MD OFFICE B END_A - STORY GROUND\".\n   **   ~~~   ** Item length=[103] > Maximum Length=[100]. You may need to shorten the names.\n   **   ~~~   ** Shortening the Object Name by [4] characters will assure uniqueness for this ZoneList.\n   **   ~~~   ** name that will be used (may be needed in reporting)=\"ZONE OFFICE WHOLEBUILDING - MD OFFICE B END_A - STORY GROUND OFFICE WHOLEBUILDING - MD OFFICE ELEC EQUIP\".\n   ** Warning ** GetInternalHeatGains: ElectricEquipment Combination of ZoneList and Object Name generate a name too long.\n   **   ~~~   ** Object Name=\"OFFICE WHOLEBUILDING - MD OFFICE ELEC EQUIP\".\n   **   ~~~   ** ZoneList/Zone Name=\"ZONE OFFICE WHOLEBUILDING - MD OFFICE B END_B - STORY GROUND\".\n   **   ~~~   ** Item length=[103] > Maximum Length=[100]. You may need to shorten the names.\n   **   ~~~   ** Shortening the Object Name by [4] characters will assure uniqueness for this ZoneList.\n   **   ~~~   ** name that will be used (may be needed in reporting)=\"ZONE OFFICE WHOLEBUILDING - MD OFFICE B END_B - STORY GROUND OFFICE WHOLEBUILDING - MD OFFICE ELEC EQUIP\".\n   ** Warning ** GetInternalHeatGains: ElectricEquipment Combination of ZoneList and Object Name generate a name too long.\n   **   ~~~   ** Object Name=\"OFFICE WHOLEBUILDING - MD OFFICE ELEC EQUIP\".\n   **   ~~~   ** ZoneList/Zone Name=\"ZONE OFFICE WHOLEBUILDING - MD OFFICE C END_A - STORY GROUND\".\n   **   ~~~   ** Item length=[103] > Maximum Length=[100]. You may need to shorten the names.\n   **   ~~~   ** Shortening the Object Name by [4] characters will assure uniqueness for this ZoneList.\n   **   ~~~   ** name that will be used (may be needed in reporting)=\"ZONE OFFICE WHOLEBUILDING - MD OFFICE C END_A - STORY GROUND OFFICE WHOLEBUILDING - MD OFFICE ELEC EQUIP\".\n   ** Warning ** GetInternalHeatGains: ElectricEquipment Combination of ZoneList and Object Name generate a name too long.\n   **   ~~~   ** Object Name=\"OFFICE WHOLEBUILDING - MD OFFICE ELEC EQUIP\".\n   **   ~~~   ** ZoneList/Zone Name=\"ZONE OFFICE WHOLEBUILDING - MD OFFICE C END_B - STORY GROUND\".\n   **   ~~~   ** Item length=[103] > Maximum Length=[100]. You may need to shorten the names.\n   **   ~~~   ** Shortening the Object Name by [4] characters will assure uniqueness for this ZoneList.\n   **   ~~~   ** name that will be used (may be needed in reporting)=\"ZONE OFFICE WHOLEBUILDING - MD OFFICE C END_B - STORY GROUND OFFICE WHOLEBUILDING - MD OFFICE ELEC EQUIP\".\n   ** Warning ** GetDaylightingControls: Fraction of Zone controlled by the Daylighting reference points is < 1.0.\n   **   ~~~   ** ..discovered in \"Daylighting:Controls\" for Zone=\"ZONE OFFICE WHOLEBUILDING - MD OFFICE A  - STORY GROUND\", only 0.25 of the zone is controlled.\n   ** Warning ** GetDaylightingControls: Fraction of Zone controlled by the Daylighting reference points is < 1.0.\n   **   ~~~   ** ..discovered in \"Daylighting:Controls\" for Zone=\"ZONE OFFICE WHOLEBUILDING - MD OFFICE A  - STORY MID\", only 0.25 of the zone is controlled.\n   ** Warning ** GetDaylightingControls: Fraction of Zone controlled by the Daylighting reference points is < 1.0.\n   **   ~~~   ** ..discovered in \"Daylighting:Controls\" for Zone=\"ZONE OFFICE WHOLEBUILDING - MD OFFICE A  - STORY TOP\", only 0.25 of the zone is controlled.\n   ** Warning ** GetDaylightingControls: Fraction of Zone controlled by the Daylighting reference points is < 1.0.\n   **   ~~~   ** ..discovered in \"Daylighting:Controls\" for Zone=\"ZONE OFFICE WHOLEBUILDING - MD OFFICE C  - STORY GROUND\", only 0.25 of the zone is controlled.\n   ** Warning ** GetDaylightingControls: Fraction of Zone controlled by the Daylighting reference points is < 1.0.\n   **   ~~~   ** ..discovered in \"Daylighting:Controls\" for Zone=\"ZONE OFFICE WHOLEBUILDING - MD OFFICE C  - STORY MID\", only 0.25 of the zone is controlled.\n   ** Warning ** GetDaylightingControls: Fraction of Zone controlled by the Daylighting reference points is < 1.0.\n   **   ~~~   ** ..discovered in \"Daylighting:Controls\" for Zone=\"ZONE OFFICE WHOLEBUILDING - MD OFFICE C  - STORY TOP\", only 0.25 of the zone is controlled.\n   ************* Beginning System Sizing Calculations\n   ************* Beginning Plant Sizing Calculations\n   ** Warning ** GetDXCoils: Coil:Heating:DX:SingleSpeed=\"ZONE OFFICE WHOLEBUILDING - MD OFFICE B  - STORY GROUND HP HTG COIL 60 CLG KBTU/HR 7.7HSPF\", invalid\n   **   ~~~   ** ...Part Load Fraction Correlation Curve Name = DXHEAT-NECB2011-REF-PLFFPLR has out of range value.\n   **   ~~~   ** ...Curve maximum must be <= 1.0, curve max at PLR = 0.99 is 1.005\n   **   ~~~   ** ...Setting curve maximum to 1.0 and simulation continues.\n   ** Warning ** GetDXCoils: Coil:Heating:DX:SingleSpeed=\"ZONE OFFICE WHOLEBUILDING - MD OFFICE B  - STORY GROUND HP HTG COIL 60 CLG KBTU/HR 7.7HSPF\" curve values\n   **   ~~~   ** ... Defrost Energy Input Ratio Function of Temperature Curve Name = ZONE OFFICE WHOLEBUILDING - MD OFFICE B  - STORY GROUND HP HTG COIL DEFROST EIR FUNC OF TEMP CURVE 1 output is not equal to 1.0 (+ or - 10%) at rated conditions.\n   **   ~~~   ** ... Curve output at rated conditions = 0.787\n   ** Warning ** The Standard Ratings is calculated for Coil:Cooling:DX:SingleSpeed = ZONE OFFICE WHOLEBUILDING - MD OFFICE B  - STORY GROUND PSZ-HP 1SPD DX HP CLG COIL 60KBTU/HR 13.0SEER but not at the AHRI test condition due to curve out of bound.\n   **   ~~~   **  Review the Standard Ratings calculations in the Engineering Reference for this coil type. Also, use Output:Diagnostics, DisplayExtraWarnings for further guidance.\n   ** Warning ** Output:Meter: invalid Key Name=\"HEATING:GAS\" - not found.\n   ** Warning ** Output:Meter: invalid Key Name=\"EXTERIORLIGHTING:ELECTRICITY\" - not found.\n   ** Warning ** Output:Meter: invalid Key Name=\"DISTRICTCOOLING:FACILITY\" - not found.\n   ** Warning ** Output:Meter: invalid Key Name=\"DISTRICTHEATING:FACILITY\" - not found.\n   ** Warning ** Output:Meter:MeterFileOnly requested for \"Electricity:Facility\" (Hourly), already on \"Output:Meter\". Will report to both eplusout.eso and eplusout.mtr\n   ** Warning ** Output:Meter:MeterFileOnly requested for \"Gas:Facility\" (Hourly), already on \"Output:Meter\". Will report to both eplusout.eso and eplusout.mtr\n   ** Warning ** Output:Meter:MeterFileOnly: invalid Key Name=\"PROPANE:FACILITY\" - not found.\n   ** Warning ** Output:Meter:MeterFileOnly requested for \"Electricity:Facility\" (TimeStep), already on \"Output:Meter\". Will report to both eplusout.eso and eplusout.mtr\n   ************* Testing Individual Branch Integrity\n   ************* All Branches passed integrity testing\n   ************* Testing Individual Supply Air Path Integrity\n   ************* All Supply Air Paths passed integrity testing\n   ************* Testing Individual Return Air Path Integrity\n   ************* All Return Air Paths passed integrity testing\n   ************* No node connection errors were found.\n   ************* Beginning Simulation\n   ** Warning ** Processing Monthly Tabular Reports: Variable names not valid for this simulation\n   **   ~~~   ** ...use Output:Diagnostics,DisplayExtraWarnings; to show more details on individual variables.\n   ** Warning ** SimHVAC: Maximum iterations (20) exceeded for all HVAC loops, at RUN PERIOD 1, 01/11 15:40 - 15:50\n   **   ~~~   ** The solution for one or more of the Air Loop HVAC systems did not appear to converge\n   **   ~~~   ** ...use Output:Diagnostics,DisplayExtraWarnings; to show more details on each max iteration exceeded.\n   ** Warning ** SimHVAC: Maximum iterations (20) exceeded for all HVAC loops, at RUN PERIOD 1, 01/13 12:40 - 12:50\n   **   ~~~   ** The solution for one or more of the Air Loop HVAC systems did not appear to converge\n   ** Warning ** SimHVAC: Maximum iterations (20) exceeded for all HVAC loops, at RUN PERIOD 1, 01/13 12:40 - 12:45\n   **   ~~~   ** The solution for one or more of the Air Loop HVAC systems did not appear to converge\n   ** Warning ** SimHVAC: Maximum iterations (20) exceeded for all HVAC loops, at RUN PERIOD 1, 01/13 12:45 - 12:50\n   **   ~~~   ** The solution for one or more of the Air Loop HVAC systems did not appear to converge\n   ** Warning ** SimHVAC: Maximum iterations (20) exceeded for all HVAC loops, at RUN PERIOD 1, 01/13 14:00 - 14:10\n   **   ~~~   ** The solution for one or more of the Air Loop HVAC systems did not appear to converge\n   ** Warning ** SimHVAC: Maximum iterations (20) exceeded for all HVAC loops, at RUN PERIOD 1, 01/13 15:30 - 15:40\n   **   ~~~   ** The solution for one or more of the Air Loop HVAC systems did not appear to converge\n   ** Warning ** SimHVAC: Maximum iterations (20) exceeded for all HVAC loops, at RUN PERIOD 1, 01/16 14:50 - 15:00\n   **   ~~~   ** The solution for one or more of the Air Loop HVAC systems did not appear to converge\n   ** Warning ** SimHVAC: Maximum iterations (20) exceeded for all HVAC loops, at RUN PERIOD 1, 01/27 15:20 - 15:30\n   **   ~~~   ** The solution for one or more of the Air Loop HVAC systems did not appear to converge\n   ** Warning ** SimHVAC: Maximum iterations (20) exceeded for all HVAC loops, at RUN PERIOD 1, 01/31 14:10 - 14:20\n   **   ~~~   ** The solution for one or more of the Air Loop HVAC systems did not appear to converge\n   ** Warning ** SimHVAC: Maximum iterations (20) exceeded for all HVAC loops, at RUN PERIOD 1, 02/01 15:40 - 15:50\n   **   ~~~   ** The solution for one or more of the Air Loop HVAC systems did not appear to converge\n   ** Warning ** SimHVAC: Maximum iterations (20) exceeded for all HVAC loops, at RUN PERIOD 1, 02/17 10:20 - 10:25\n   **   ~~~   ** The solution for one or more of the Air Loop HVAC systems did not appear to converge\n   ** Warning ** SimHVAC: Maximum iterations (20) exceeded for all HVAC loops, at RUN PERIOD 1, 02/28 17:10 - 17:20\n   **   ~~~   ** The solution for one or more of the Air Loop HVAC systems did not appear to converge\n   ** Warning ** SimHVAC: Maximum iterations (20) exceeded for all HVAC loops, at RUN PERIOD 1, 03/01 16:50 - 17:00\n   **   ~~~   ** The solution for one or more of the Air Loop HVAC systems did not appear to converge\n   ** Warning ** SimHVAC: Maximum iterations (20) exceeded for all HVAC loops, at RUN PERIOD 1, 03/02 12:10 - 12:20\n   **   ~~~   ** The solution for one or more of the Air Loop HVAC systems did not appear to converge\n   ** Warning ** Entered Humidity Ratio invalid (PsyTwbFnTdbWPb)\n   **   ~~~   **  Routine=ReportCoilSelection::doFinalProcessingOfCoilData,\n   **   ~~~   **  Environment=RUN PERIOD 1, at Simulation time=12/31 24:00 - 24:05\n   **   ~~~   **  Dry-Bulb= 20.23 Humidity Ratio= -999.000 Pressure= 101288.93\n   **   ~~~   ** Humidity Ratio= -999.0000 ... Humidity Ratio set to .00001\n   ** Warning ** The resource referenced by LifeCycleCost:UsePriceEscalation= \"U.S. AVG  COMMERCIAL-ELECTRICITY\" has no energy cost. \n   **   ~~~   ** ... It is likely that the wrong resource is used. The resource should match the meter used in Utility:Tariff.\n   ** Warning ** The resource referenced by LifeCycleCost:UsePriceEscalation= \"U.S. AVG  COMMERCIAL-DISTILLATE OIL\" has no energy cost. \n   **   ~~~   ** ... It is likely that the wrong resource is used. The resource should match the meter used in Utility:Tariff.\n   ** Warning ** The resource referenced by LifeCycleCost:UsePriceEscalation= \"U.S. AVG  COMMERCIAL-RESIDUAL OIL\" has no energy cost. \n   **   ~~~   ** ... It is likely that the wrong resource is used. The resource should match the meter used in Utility:Tariff.\n   ** Warning ** The resource referenced by LifeCycleCost:UsePriceEscalation= \"U.S. AVG  COMMERCIAL-NATURAL GAS\" has no energy cost. \n   **   ~~~   ** ... It is likely that the wrong resource is used. The resource should match the meter used in Utility:Tariff.\n   ** Warning ** The resource referenced by LifeCycleCost:UsePriceEscalation= \"U.S. AVG  COMMERCIAL-COAL\" has no energy cost. \n   **   ~~~   ** ... It is likely that the wrong resource is used. The resource should match the meter used in Utility:Tariff.\n   ************* Simulation Error Summary *************\n   ************* There are 11 unused schedules in input.\n   ************* There are 11 unused week schedules in input.\n   ************* There are 30 unused day schedules in input.\n   ************* Use Output:Diagnostics,DisplayUnusedSchedules; to see them.\n   *************\n   ************* ===== Recurring Error Summary =====\n   ************* The following recurring error messages occurred.\n   *************\n   *************  ** Warning ** SimHVAC: Exceeding Maximum iterations for all HVAC loops, during RUN PERIOD 1 continues\n   *************  **   ~~~   **   This error occurred 44 total times;\n   *************  **   ~~~   **   during Warmup 0 times;\n   *************  **   ~~~   **   during Sizing 0 times.\n   *************\n   *************  ** Warning ** Entered Humidity Ratio invalid (PsyTwbFnTdbWPb)\n   *************  **   ~~~   **   This error occurred 26 total times;\n   *************  **   ~~~   **   during Warmup 0 times;\n   *************  **   ~~~   **   during Sizing 0 times.\n   *************  **   ~~~   **   Max=-999. []  Min=-999. []\n   *************\n   *************\n   ************* ===== Final Error Summary =====\n   ************* The following error categories occurred.  Consider correcting or noting.\n   ************* Nominally Unused Constructions\n   ************* ..The nominally unused constructions warning is provided to alert you to potential conditions that can cause\n   ************* ..extra time during simulation. Each construction is calculated by the algorithm indicated in the HeatBalanceAlgorithm\n   ************* ..object. You may remove the constructions indicated (when you use the DisplayExtraWarnings option).\n   *************\n   ************* EnergyPlus Warmup Error Summary. During Warmup: 0 Warning; 0 Severe Errors.\n   ************* EnergyPlus Sizing Error Summary. During Sizing: 62 Warning; 0 Severe Errors.\n   ************* EnergyPlus Completed Successfully-- 163 Warning; 0 Severe Errors; Elapsed Time=00hr 01min 20.64sec\n",
   "file_format_version" : "0.0.1",
   "file_paths" : [
      "/mnt/openstudio/analysis_179f9bb9-dd28-4d2c-84f7-5bdfd8f4d421/data_point_329c3aa6-4b7c-4ceb-b931-24b1d0348803/generated_files",
      "../weather",
      "../seeds",
      "../seed",
      "./files",
      "./weather",
      "../../files",
      "../../weather",
      "./"
   ],
   "hash" : "21D03290",
   "measure_paths" : [ "../measures" ],
   "name" : "LHS Autogenerated 156",
   "osa_id" : "179f9bb9-dd28-4d2c-84f7-5bdfd8f4d421",
   "osd_id" : "329c3aa6-4b7c-4ceb-b931-24b1d0348803",
   "run_directory" : "./run",
   "seed_file" : "example_model.osm",
   "started_at" : "20200426T113343Z",
   "steps" : [
      {
         "arguments" : {
            "bar_division_method" : "Multiple Space Types - Individual Stories Sliced",
            "bar_sep_dist_mult" : 10,
            "bar_width" : 0,
            "bldg_type_a" : "MediumOffice",
            "bldg_type_b" : "MediumOffice",
            "bldg_type_b_fract_bldg_area" : 0,
            "bldg_type_c" : "SmallOffice",
            "bldg_type_c_fract_bldg_area" : 0,
            "bldg_type_d" : "SmallOffice",
            "bldg_type_d_fract_bldg_area" : 0,
            "bottom_story_ground_exposed_floor" : true,
            "building_rotation" : 3.2681124780792743,
            "custom_height_bar" : true,
            "double_loaded_corridor" : "Primary Space Type",
            "floor_height" : 12,
            "make_mid_story_surfaces_adiabatic" : false,
            "ns_to_ew_ratio" : 2.8520260474807584,
            "num_stories_above_grade" : 4,
            "num_stories_below_grade" : 0,
            "party_wall_fraction" : 0,
            "party_wall_stories_east" : 0,
            "party_wall_stories_north" : 0,
            "party_wall_stories_south" : 0,
            "party_wall_stories_west" : 0,
            "perim_mult" : 0,
            "single_floor_area" : 0,
            "space_type_sort_logic" : "Building Type > Size",
            "story_multiplier" : "Basements Ground Mid Top",
            "template" : "90.1-2010",
            "top_story_exterior_exposed_roof" : true,
            "total_bldg_floor_area" : 50017.402219946962,
            "use_upstream_args" : true,
            "wwr" : 0.25250955972168598
         },
         "description" : "Creates one or more rectangular building elements based on space type ratios of selected mix of building types, along with user arguments that describe the desired geometry characteristics.",
         "measure_dir_name" : "create_bar_from_doe_building_type_ratios",
         "name" : "create_bar_from_doe_building_type_ratios",
         "result" : {
            "completed_at" : "20200426T113354Z",
            "measure_class_name" : "CreateBarFromDOEBuildingTypeRatios",
            "measure_display_name" : "Create Bar From DOE Building Type Ratios",
            "measure_name" : "create_bar_from_doe_building_type_ratios",
            "measure_taxonomy" : "Envelope.Form",
            "measure_type" : "ModelMeasure",
            "measure_uid" : "0de3cff9-c805-42c4-964e-18cb43a22c63",
            "measure_version_id" : "27001969-6956-4e92-b9e8-57c3babf724c",
            "measure_version_modified" : "20200424T162236Z",
            "measure_xml_checksum" : "5F523097",
            "started_at" : "20200426T113350Z",
            "stderr" : "",
            "stdout" : "[openstudio.standards.standard] <-1> Using OpenStudio Standards version 0.2.10 with template 90.1-2010.\n[openstudio.standards.standard] <-1> Loading OpenStudio Standards data for 90.1-2010\n[openstudio.standards.standard] <-2> Loading JSON files from /var/oscli/gems/ruby/2.2.0/gems/openstudio-standards-0.2.10/lib/openstudio-standards/standards/ashrae_90_1\n[openstudio.standards.standard] <-2> Adding parking from ashrae_90_1.parking.json\n[openstudio.standards.standard] <-2> Adding schedules from ashrae_90_1.schedules.json\n[openstudio.standards.standard] <-2> Adding fans from ashrae_90_1.fans.json\n[openstudio.standards.standard] <-2> Adding climate_zones from ashrae_90_1.climate_zones.json\n[openstudio.standards.standard] <-2> Adding materials from ashrae_90_1.materials.json\n[openstudio.standards.standard] <-2> Adding climate_zone_sets from ashrae_90_1.climate_zone_sets.json\n[openstudio.standards.standard] <-2> Adding constructions from ashrae_90_1.constructions.json\n[openstudio.standards.standard] <-2> Adding size_category from Any.size_category.json\n[openstudio.standards.standard] <-2> Adding entryways from ashrae_90_1.entryways.json\n[openstudio.standards.standard] <-2> Adding hvac_inference from Any.hvac_inference.json\n[openstudio.standards.standard] <-2> Adding curves from ashrae_90_1.curves.json\n[openstudio.standards.standard] <-2> Loading JSON files from /var/oscli/gems/ruby/2.2.0/gems/openstudio-standards-0.2.10/lib/openstudio-standards/standards/ashrae_90_1/ashrae_90_1_2010\n[openstudio.standards.standard] <-2> Adding economizers from ashrae_90_1_2010.economizers.json\n[openstudio.standards.standard] <-2> Adding heat_pumps_heating from ashrae_90_1_2010.heat_pumps_heating.json\n[openstudio.standards.standard] <-2> Adding space_types from ashrae_90_1_2010.spc_typ.json\n[openstudio.standards.standard] <-2> Adding heat_pumps from ashrae_90_1_2010.heat_pumps.json\n[openstudio.standards.standard] <-2> Adding exterior_lighting from ashrae_90_1_2010.ext_ltg.json\n[openstudio.standards.standard] <-2> Adding prototype_inputs from ashrae_90_1_2010.prototype_inputs.json\n[openstudio.standards.standard] <-2> Adding motors from ashrae_90_1_2010.motors.json\n[openstudio.standards.standard] <-2> Adding water_source_heat_pumps_heating from ashrae_90_1_2010.water_source_heat_pumps_heating.json\n[openstudio.standards.standard] <-2> Adding refrigeration_walkins from ashrae_90_1_2010.refrigeration_walkins.json\n[openstudio.standards.standard] <-2> Adding ground_temperatures from ashrae_90_1_2010.ground_temperatures.json\n[openstudio.standards.standard] <-2> Adding refrigeration_system_lineup from ashrae_90_1_2010.ref_lnup.json\n[openstudio.standards.standard] <-2> Adding construction_sets from ashrae_90_1_2010.construction_sets.json\n[openstudio.standards.standard] <-2> Adding water_heaters from ashrae_90_1_2010.water_heaters.json\n[openstudio.standards.standard] <-2> Adding refrigeration_compressors from ashrae_90_1_2010.refrigeration_compressors.json\n[openstudio.standards.standard] <-2> Adding elevators from ashrae_90_1_2010.elevators.json\n[openstudio.standards.standard] <-2> Adding refrigeration_condenser from ashrae_90_1_2010.refrigeration_condenser.json\n[openstudio.standards.standard] <-2> Adding unitary_acs from ashrae_90_1_2010.unitary_acs.json\n[openstudio.standards.standard] <-2> Adding water_source_heat_pumps from ashrae_90_1_2010.water_source_heat_pumps.json\n[openstudio.standards.standard] <-2> Adding refrigerated_cases from ashrae_90_1_2010.ref_cases.json\n[openstudio.standards.standard] <-2> Adding boilers from ashrae_90_1_2010.boilers.json\n[openstudio.standards.standard] <-2> Adding construction_properties from ashrae_90_1_2010.construction_properties.json\n[openstudio.standards.standard] <-2> Adding chillers from ashrae_90_1_2010.chillers.json\n[openstudio.standards.standard] <-2> Adding refrigeration_system from ashrae_90_1_2010.refrigeration_system.json\n[openstudio.standards.standard] <-2> Adding heat_rejection from ashrae_90_1_2010.heat_rejection.json\n[openstudio.model.PlanarSurface] <-2> Before setVertices have 11 fields.\n[openstudio.model.PlanarSurface] <-2> After clearExtensibleGroups in setVertices have 11 fields.\n[openstudio.model.PlanarSurface] <-2> After setVertices have 23 fields.  Size of vertices is 4.\n[openstudio.model.PlanarSurface] <-2> Before setVertices have 11 fields.\n[openstudio.model.PlanarSurface] <-2> After clearExtensibleGroups in setVertices have 11 fields.\n[openstudio.model.PlanarSurface] <-2> After setVertices have 23 fields.  Size of vertices is 4.\n[openstudio.model.PlanarSurface] <-2> Before setVertices have 11 fields.\n[openstudio.model.PlanarSurface] <-2> After clearExtensibleGroups in setVertices have 11 fields.\n[openstudio.model.PlanarSurface] <-2> After setVertices have 23 fields.  Size of vertices is 4.\n[openstudio.model.PlanarSurface] <-2> Before setVertices have 11 fields.\n[openstudio.model.PlanarSurface] <-2> After clearExtensibleGroups in setVertices have 11 fields.\n[openstudio.model.PlanarSurface] <-2> After setVertices have 23 fields.  Size of vertices is 4.\n[openstudio.model.PlanarSurface] <-2> Before setVertices have 11 fields.\n[openstudio.model.PlanarSurface] <-2> After clearExtensibleGroups in setVertices have 11 fields.\n[openstudio.model.PlanarSurface] <-2> After setVertices have 23 fields.  Size of vertices is 4.\n[openstudio.model.PlanarSurface] <-2> Before setVertices have 11 fields.\n[openstudio.model.PlanarSurface] <-2> After clearExtensibleGroups in setVertices have 11 fields.\n[openstudio.model.PlanarSurface] <-2> After setVertices have 23 fields.  Size of vertices is 4.\n[openstudio.model.PlanarSurface] <-2> Before setVertices have 23 fields.\n[openstudio.model.PlanarSurface] <-2> After clearExtensibleGroups in setVertices have 11 fields.\n[openstudio.model.PlanarSurface] <-2> After setVertices have 23 fields.  Size of vertices is 4.\n[openstudio.model.PlanarSurface] <-2> Before setVertices have 23 fields.\n[openstudio.model.PlanarSurface] <-2> After clearExtensibleGroups in setVertices have 11 fields.\n[openstudio.model.PlanarSurface] <-2> After setVertices have 23 fields.  Size of vertices is 4.\n[openstudio.model.PlanarSurface] <-2> Before setVertices have 23 fields.\n[openstudio.model.PlanarSurface] <-2> After clearExtensibleGroups in setVertices have 11 fields.\n[openstudio.model.PlanarSurface] <-2> After setVertices have 23 fields.  Size of vertices is 4.\n[openstudio.model.PlanarSurface] <-2> Before setVertices have 23 fields.\n[openstudio.model.PlanarSurface] <-2> After clearExtensibleGroups in setVertices have 11 fields.\n[openstudio.model.PlanarSurface] <-2> After setVertices have 23 fields.  Size of vertices is 4.\n[openstudio.model.PlanarSurface] <-2> Before setVertices have 23 fields.\n[openstudio.model.PlanarSurface] <-2> After clearExtensibleGroups in setVertices have 11 fields.\n[openstudio.model.PlanarSurface] <-2> After setVertices have 23 fields.  Size of vertices is 4.\n[openstudio.model.PlanarSurface] <-2> Before setVertices have 23 fields.\n[openstudio.model.PlanarSurface] <-2> After clearExtensibleGroups in setVertices have 11 fields.\n[openstudio.model.PlanarSurface] <-2> After setVertices have 23 fields.  Size of vertices is 4.\n[openstudio.model.PlanarSurface] <-2> Before setVertices have 11 fields.\n[openstudio.model.PlanarSurface] <-2> After clearExtensibleGroups in setVertices have 11 fields.\n[openstudio.model.PlanarSurface] <-2> After setVertices have 23 fields.  Size of vertices is 4.\n[openstudio.model.PlanarSurface] <-2> Before setVertices have 11 fields.\n[openstudio.model.PlanarSurface] <-2> After clearExtensibleGroups in setVertices have 11 fields.\n[openstudio.model.PlanarSurface] <-2> After setVertices have 23 fields.  Size of vertices is 4.\n[openstudio.model.PlanarSurface] <-2> Before setVertices have 11 fields.\n[openstudio.model.PlanarSurface] <-2> After clearExtensibleGroups in setVertices have 11 fields.\n[openstudio.model.PlanarSurface] <-2> After setVertices have 23 fields.  Size of vertices is 4.\n[openstudio.model.PlanarSurface] <-2> Before setVertices have 11 fields.\n[openstudio.model.PlanarSurface] <-2> After clearExtensibleGroups in setVertices have 11 fields.\n[openstudio.model.PlanarSurface] <-2> After setVertices have 23 fields.  Size of vertices is 4.\n[openstudio.model.PlanarSurface] <-2> Before setVertices have 11 fields.\n[openstudio.model.PlanarSurface] <-2> After clearExtensibleGroups in setVertices have 11 fields.\n[openstudio.model.PlanarSurface] <-2> After setVertices have 23 fields.  Size of vertices is 4.\n[openstudio.model.PlanarSurface] <-2> Before setVertices have 11 fields.\n[openstudio.model.PlanarSurface] <-2> After clearExtensibleGroups in setVertices have 11 fields.\n[openstudio.model.PlanarSurface] <-2> After setVertices have 23 fields.  Size of vertices is 4.\n[openstudio.model.PlanarSurface] <-2> Before setVertices have 23 fields.\n[openstudio.model.PlanarSurface] <-2> After clearExtensibleGroups in setVertices have 11 fields.\n[openstudio.model.PlanarSurface] <-2> After setVertices have 23 fields.  Size of vertices is 4.\n[openstudio.model.PlanarSurface] <-2> Before setVertices have 23 fields.\n[openstudio.model.PlanarSurface] <-2> After clearExtensibleGroups in setVertices have 11 fields.\n[openstudio.model.PlanarSurface] <-2> After setVertices have 23 fields.  Size of vertices is 4.\n[openstudio.model.PlanarSurface] <-2> Before setVertices have 23 fields.\n[openstudio.model.PlanarSurface] <-2> After clearExtensibleGroups in setVertices have 11 fields.\n[openstudio.model.PlanarSurface] <-2> After setVertices have 23 fields.  Size of vertices is 4.\n[openstudio.model.PlanarSurface] <-2> Before setVertices have 23 fields.\n[openstudio.model.PlanarSurface] <-2> After clearExtensibleGroups in setVertices have 11 fields.\n[openstudio.model.PlanarSurface] <-2> After setVertices have 23 fields.  Size of vertices is 4.\n[openstudio.model.PlanarSurface] <-2> Before setVertices have 23 fields.\n[openstudio.model.PlanarSurface] <-2> After clearExtensibleGroups in setVertices have 11 fields.\n[openstudio.model.PlanarSurface] <-2> After setVertices have 23 fields.  Size of vertices is 4.\n[openstudio.model.PlanarSurface] <-2> Before setVertices have 23 fields.\n[openstudio.model.PlanarSurface] <-2> After clearExtensibleGroups in setVertices have 11 fields.\n[openstudio.model.PlanarSurface] <-2> After setVertices have 23 fields.  Size of vertices is 4.\n[openstudio.model.PlanarSurface] <-2> Before setVertices have 11 fields.\n[openstudio.model.PlanarSurface] <-2> After clearExtensibleGroups in setVertices have 11 fields.\n[openstudio.model.PlanarSurface] <-2> After setVertices have 23 fields.  Size of vertices is 4.\n[openstudio.model.PlanarSurface] <-2> Before setVertices have 11 fields.\n[openstudio.model.PlanarSurface] <-2> After clearExtensibleGroups in setVertices have 11 fields.\n[openstudio.model.PlanarSurface] <-2> After setVertices have 23 fields.  Size of vertices is 4.\n[openstudio.model.PlanarSurface] <-2> Before setVertices have 11 fields.\n[openstudio.model.PlanarSurface] <-2> After clearExtensibleGroups in setVertices have 11 fields.\n[openstudio.model.PlanarSurface] <-2> After setVertices have 23 fields.  Size of vertices is 4.\n[openstudio.model.PlanarSurface] <-2> Before setVertices have 11 fields.\n[openstudio.model.PlanarSurface] <-2> After clearExtensibleGroups in setVertices have 11 fields.\n[openstudio.model.PlanarSurface] <-2> After setVertices have 23 fields.  Size of vertices is 4.\n[openstudio.model.PlanarSurface] <-2> Before setVertices have 11 fields.\n[openstudio.model.PlanarSurface] <-2> After clearExtensibleGroups in setVertices have 11 fields.\n[openstudio.model.PlanarSurface] <-2> After setVertices have 23 fields.  Size of vertices is 4.\n[openstudio.model.PlanarSurface] <-2> Before setVertices have 11 fields.\n[openstudio.model.PlanarSurface] <-2> After clearExtensibleGroups in setVertices have 11 fields.\n[openstudio.model.PlanarSurface] <-2> After setVertices have 23 fields.  Size of vertices is 4.\n[openstudio.model.PlanarSurface] <-2> Before setVertices have 23 fields.\n[openstudio.model.PlanarSurface] <-2> After clearExtensibleGroups in setVertices have 11 fields.\n[openstudio.model.PlanarSurface] <-2> After setVertices have 23 fields.  Size of vertices is 4.\n[openstudio.model.PlanarSurface] <-2> Before setVertices have 23 fields.\n[openstudio.model.PlanarSurface] <-2> After clearExtensibleGroups in setVertices have 11 fields.\n[openstudio.model.PlanarSurface] <-2> After setVertices have 23 fields.  Size of vertices is 4.\n[openstudio.model.PlanarSurface] <-2> Before setVertices have 23 fields.\n[openstudio.model.PlanarSurface] <-2> After clearExtensibleGroups in setVertices have 11 fields.\n[openstudio.model.PlanarSurface] <-2> After setVertices have 23 fields.  Size of vertices is 4.\n[openstudio.model.PlanarSurface] <-2> Before setVertices have 23 fields.\n[openstudio.model.PlanarSurface] <-2> After clearExtensibleGroups in setVertices have 11 fields.\n[openstudio.model.PlanarSurface] <-2> After setVertices have 23 fields.  Size of vertices is 4.\n[openstudio.model.PlanarSurface] <-2> Before setVertices have 23 fields.\n[openstudio.model.PlanarSurface] <-2> After clearExtensibleGroups in setVertices have 11 fields.\n[openstudio.model.PlanarSurface] <-2> After setVertices have 23 fields.  Size of vertices is 4.\n[openstudio.model.PlanarSurface] <-2> Before setVertices have 23 fields.\n[openstudio.model.PlanarSurface] <-2> After clearExtensibleGroups in setVertices have 11 fields.\n[openstudio.model.PlanarSurface] <-2> After setVertices have 23 fields.  Size of vertices is 4.\n[openstudio.model.PlanarSurface] <-2> Before setVertices have 11 fields.\n[openstudio.model.PlanarSurface] <-2> After clearExtensibleGroups in setVertices have 11 fields.\n[openstudio.model.PlanarSurface] <-2> After setVertices have 23 fields.  Size of vertices is 4.\n[openstudio.model.PlanarSurface] <-2> Before setVertices have 11 fields.\n[openstudio.model.PlanarSurface] <-2> After clearExtensibleGroups in setVertices have 11 fields.\n[openstudio.model.PlanarSurface] <-2> After setVertices have 23 fields.  Size of vertices is 4.\n[openstudio.model.PlanarSurface] <-2> Before setVertices have 11 fields.\n[openstudio.model.PlanarSurface] <-2> After clearExtensibleGroups in setVertices have 11 fields.\n[openstudio.model.PlanarSurface] <-2> After setVertices have 23 fields.  Size of vertices is 4.\n[openstudio.model.PlanarSurface] <-2> Before setVertices have 11 fields.\n[openstudio.model.PlanarSurface] <-2> After clearExtensibleGroups in setVertices have 11 fields.\n[openstudio.model.PlanarSurface] <-2> After setVertices have 23 fields.  Size of vertices is 4.\n[openstudio.model.PlanarSurface] <-2> Before setVertices have 11 fields.\n[openstudio.model.PlanarSurface] <-2> After clearExtensibleGroups in setVertices have 11 fields.\n[openstudio.model.PlanarSurface] <-2> After setVertices have 23 fields.  Size of vertices is 4.\n[openstudio.model.PlanarSurface] <-2> Before setVertices have 11 fields.\n[openstudio.model.PlanarSurface] <-2> After clearExtensibleGroups in setVertices have 11 fields.\n[openstudio.model.PlanarSurface] <-2> After setVertices have 23 fields.  Size of vertices is 4.\n[openstudio.model.PlanarSurface] <-2> Before setVertices have 23 fields.\n[openstudio.model.PlanarSurface] <-2> After clearExtensibleGroups in setVertices have 11 fields.\n[openstudio.model.PlanarSurface] <-2> After setVertices have 23 fields.  Size of vertices is 4.\n[openstudio.model.PlanarSurface] <-2> Before setVertices have 23 fields.\n[openstudio.model.PlanarSurface] <-2> After clearExtensibleGroups in setVertices have 11 fields.\n[openstudio.model.PlanarSurface] <-2> After setVertices have 23 fields.  Size of vertices is 4.\n[openstudio.model.PlanarSurface] <-2> Before setVertices have 23 fields.\n[openstudio.model.PlanarSurface] <-2> After clearExtensibleGroups in setVertices have 11 fields.\n[openstudio.model.PlanarSurface] <-2> After setVertices have 23 fields.  Size of vertices is 4.\n[openstudio.model.PlanarSurface] <-2> Before setVertices have 23 fields.\n[openstudio.model.PlanarSurface] <-2> After clearExtensibleGroups in setVertices have 11 fields.\n[openstudio.model.PlanarSurface] <-2> After setVertices have 23 fields.  Size of vertices is 4.\n[openstudio.model.PlanarSurface] <-2> Before setVertices have 23 fields.\n[openstudio.model.PlanarSurface] <-2> After clearExtensibleGroups in setVertices have 11 fields.\n[openstudio.model.PlanarSurface] <-2> After setVertices have 23 fields.  Size of vertices is 4.\n[openstudio.model.PlanarSurface] <-2> Before setVertices have 23 fields.\n[openstudio.model.PlanarSurface] <-2> After clearExtensibleGroups in setVertices have 11 fields.\n[openstudio.model.PlanarSurface] <-2> After setVertices have 23 fields.  Size of vertices is 4.\n[openstudio.model.PlanarSurface] <-2> Before setVertices have 11 fields.\n[openstudio.model.PlanarSurface] <-2> After clearExtensibleGroups in setVertices have 11 fields.\n[openstudio.model.PlanarSurface] <-2> After setVertices have 23 fields.  Size of vertices is 4.\n[openstudio.model.PlanarSurface] <-2> Before setVertices have 11 fields.\n[openstudio.model.PlanarSurface] <-2> After clearExtensibleGroups in setVertices have 11 fields.\n[openstudio.model.PlanarSurface] <-2> After setVertices have 23 fields.  Size of vertices is 4.\n[openstudio.model.PlanarSurface] <-2> Before setVertices have 11 fields.\n[openstudio.model.PlanarSurface] <-2> After clearExtensibleGroups in setVertices have 11 fields.\n[openstudio.model.PlanarSurface] <-2> After setVertices have 23 fields.  Size of vertices is 4.\n[openstudio.model.PlanarSurface] <-2> Before setVertices have 11 fields.\n[openstudio.model.PlanarSurface] <-2> After clearExtensibleGroups in setVertices have 11 fields.\n[openstudio.model.PlanarSurface] <-2> After setVertices have 23 fields.  Size of vertices is 4.\n[openstudio.model.PlanarSurface] <-2> Before setVertices have 11 fields.\n[openstudio.model.PlanarSurface] <-2> After clearExtensibleGroups in setVertices have 11 fields.\n[openstudio.model.PlanarSurface] <-2> After setVertices have 23 fields.  Size of vertices is 4.\n[openstudio.model.PlanarSurface] <-2> Before setVertices have 11 fields.\n[openstudio.model.PlanarSurface] <-2> After clearExtensibleGroups in setVertices have 11 fields.\n[openstudio.model.PlanarSurface] <-2> After setVertices have 23 fields.  Size of vertices is 4.\n[openstudio.model.PlanarSurface] <-2> Before setVertices have 23 fields.\n[openstudio.model.PlanarSurface] <-2> After clearExtensibleGroups in setVertices have 11 fields.\n[openstudio.model.PlanarSurface] <-2> After setVertices have 23 fields.  Size of vertices is 4.\n[openstudio.model.PlanarSurface] <-2> Before setVertices have 23 fields.\n[openstudio.model.PlanarSurface] <-2> After clearExtensibleGroups in setVertices have 11 fields.\n[openstudio.model.PlanarSurface] <-2> After setVertices have 23 fields.  Size of vertices is 4.\n[openstudio.model.PlanarSurface] <-2> Before setVertices have 23 fields.\n[openstudio.model.PlanarSurface] <-2> After clearExtensibleGroups in setVertices have 11 fields.\n[openstudio.model.PlanarSurface] <-2> After setVertices have 23 fields.  Size of vertices is 4.\n[openstudio.model.PlanarSurface] <-2> Before setVertices have 23 fields.\n[openstudio.model.PlanarSurface] <-2> After clearExtensibleGroups in setVertices have 11 fields.\n[openstudio.model.PlanarSurface] <-2> After setVertices have 23 fields.  Size of vertices is 4.\n[openstudio.model.PlanarSurface] <-2> Before setVertices have 23 fields.\n[openstudio.model.PlanarSurface] <-2> After clearExtensibleGroups in setVertices have 11 fields.\n[openstudio.model.PlanarSurface] <-2> After setVertices have 23 fields.  Size of vertices is 4.\n[openstudio.model.PlanarSurface] <-2> Before setVertices have 23 fields.\n[openstudio.model.PlanarSurface] <-2> After clearExtensibleGroups in setVertices have 11 fields.\n[openstudio.model.PlanarSurface] <-2> After setVertices have 23 fields.  Size of vertices is 4.\n[openstudio.model.PlanarSurface] <-2> Before setVertices have 11 fields.\n[openstudio.model.PlanarSurface] <-2> After clearExtensibleGroups in setVertices have 11 fields.\n[openstudio.model.PlanarSurface] <-2> After setVertices have 23 fields.  Size of vertices is 4.\n[openstudio.model.PlanarSurface] <-2> Before setVertices have 11 fields.\n[openstudio.model.PlanarSurface] <-2> After clearExtensibleGroups in setVertices have 11 fields.\n[openstudio.model.PlanarSurface] <-2> After setVertices have 23 fields.  Size of vertices is 4.\n[openstudio.model.PlanarSurface] <-2> Before setVertices have 11 fields.\n[openstudio.model.PlanarSurface] <-2> After clearExtensibleGroups in setVertices have 11 fields.\n[openstudio.model.PlanarSurface] <-2> After setVertices have 23 fields.  Size of vertices is 4.\n[openstudio.model.PlanarSurface] <-2> Before setVertices have 11 fields.\n[openstudio.model.PlanarSurface] <-2> After clearExtensibleGroups in setVertices have 11 fields.\n[openstudio.model.PlanarSurface] <-2> After setVertices have 23 fields.  Size of vertices is 4.\n[openstudio.model.PlanarSurface] <-2> Before setVertices have 11 fields.\n[openstudio.model.PlanarSurface] <-2> After clearExtensibleGroups in setVertices have 11 fields.\n[openstudio.model.PlanarSurface] <-2> After setVertices have 23 fields.  Size of vertices is 4.\n[openstudio.model.PlanarSurface] <-2> Before setVertices have 11 fields.\n[openstudio.model.PlanarSurface] <-2> After clearExtensibleGroups in setVertices have 11 fields.\n[openstudio.model.PlanarSurface] <-2> After setVertices have 23 fields.  Size of vertices is 4.\n[openstudio.model.PlanarSurface] <-2> Before setVertices have 23 fields.\n[openstudio.model.PlanarSurface] <-2> After clearExtensibleGroups in setVertices have 11 fields.\n[openstudio.model.PlanarSurface] <-2> After setVertices have 23 fields.  Size of vertices is 4.\n[openstudio.model.PlanarSurface] <-2> Before setVertices have 23 fields.\n[openstudio.model.PlanarSurface] <-2> After clearExtensibleGroups in setVertices have 11 fields.\n[openstudio.model.PlanarSurface] <-2> After setVertices have 23 fields.  Size of vertices is 4.\n[openstudio.model.PlanarSurface] <-2> Before setVertices have 23 fields.\n[openstudio.model.PlanarSurface] <-2> After clearExtensibleGroups in setVertices have 11 fields.\n[openstudio.model.PlanarSurface] <-2> After setVertices have 23 fields.  Size of vertices is 4.\n[openstudio.model.PlanarSurface] <-2> Before setVertices have 23 fields.\n[openstudio.model.PlanarSurface] <-2> After clearExtensibleGroups in setVertices have 11 fields.\n[openstudio.model.PlanarSurface] <-2> After setVertices have 23 fields.  Size of vertices is 4.\n[openstudio.model.PlanarSurface] <-2> Before setVertices have 23 fields.\n[openstudio.model.PlanarSurface] <-2> After clearExtensibleGroups in setVertices have 11 fields.\n[openstudio.model.PlanarSurface] <-2> After setVertices have 23 fields.  Size of vertices is 4.\n[openstudio.model.PlanarSurface] <-2> Before setVertices have 23 fields.\n[openstudio.model.PlanarSurface] <-2> After clearExtensibleGroups in setVertices have 11 fields.\n[openstudio.model.PlanarSurface] <-2> After setVertices have 23 fields.  Size of vertices is 4.\n[openstudio.model.PlanarSurface] <-2> Before setVertices have 11 fields.\n[openstudio.model.PlanarSurface] <-2> After clearExtensibleGroups in setVertices have 11 fields.\n[openstudio.model.PlanarSurface] <-2> After setVertices have 23 fields.  Size of vertices is 4.\n[openstudio.model.PlanarSurface] <-2> Before setVertices have 11 fields.\n[openstudio.model.PlanarSurface] <-2> After clearExtensibleGroups in setVertices have 11 fields.\n[openstudio.model.PlanarSurface] <-2> After setVertices have 23 fields.  Size of vertices is 4.\n[openstudio.model.PlanarSurface] <-2> Before setVertices have 11 fields.\n[openstudio.model.PlanarSurface] <-2> After clearExtensibleGroups in setVertices have 11 fields.\n[openstudio.model.PlanarSurface] <-2> After setVertices have 23 fields.  Size of vertices is 4.\n[openstudio.model.PlanarSurface] <-2> Before setVertices have 11 fields.\n[openstudio.model.PlanarSurface] <-2> After clearExtensibleGroups in setVertices have 11 fields.\n[openstudio.model.PlanarSurface] <-2> After setVertices have 23 fields.  Size of vertices is 4.\n[openstudio.model.PlanarSurface] <-2> Before setVertices have 11 fields.\n[openstudio.model.PlanarSurface] <-2> After clearExtensibleGroups in setVertices have 11 fields.\n[openstudio.model.PlanarSurface] <-2> After setVertices have 23 fields.  Size of vertices is 4.\n[openstudio.model.PlanarSurface] <-2> Before setVertices have 11 fields.\n[openstudio.model.PlanarSurface] <-2> After clearExtensibleGroups in setVertices have 11 fields.\n[openstudio.model.PlanarSurface] <-2> After setVertices have 23 fields.  Size of vertices is 4.\n[openstudio.model.PlanarSurface] <-2> Before setVertices have 23 fields.\n[openstudio.model.PlanarSurface] <-2> After clearExtensibleGroups in setVertices have 11 fields.\n[openstudio.model.PlanarSurface] <-2> After setVertices have 23 fields.  Size of vertices is 4.\n[openstudio.model.PlanarSurface] <-2> Before setVertices have 23 fields.\n[openstudio.model.PlanarSurface] <-2> After clearExtensibleGroups in setVertices have 11 fields.\n[openstudio.model.PlanarSurface] <-2> After setVertices have 23 fields.  Size of vertices is 4.\n[openstudio.model.PlanarSurface] <-2> Before setVertices have 23 fields.\n[openstudio.model.PlanarSurface] <-2> After clearExtensibleGroups in setVertices have 11 fields.\n[openstudio.model.PlanarSurface] <-2> After setVertices have 23 fields.  Size of vertices is 4.\n[openstudio.model.PlanarSurface] <-2> Before setVertices have 23 fields.\n[openstudio.model.PlanarSurface] <-2> After clearExtensibleGroups in setVertices have 11 fields.\n[openstudio.model.PlanarSurface] <-2> After setVertices have 23 fields.  Size of vertices is 4.\n[openstudio.model.PlanarSurface] <-2> Before setVertices have 23 fields.\n[openstudio.model.PlanarSurface] <-2> After clearExtensibleGroups in setVertices have 11 fields.\n[openstudio.model.PlanarSurface] <-2> After setVertices have 23 fields.  Size of vertices is 4.\n[openstudio.model.PlanarSurface] <-2> Before setVertices have 23 fields.\n[openstudio.model.PlanarSurface] <-2> After clearExtensibleGroups in setVertices have 11 fields.\n[openstudio.model.PlanarSurface] <-2> After setVertices have 23 fields.  Size of vertices is 4.\n[openstudio.model.PlanarSurface] <-2> Before setVertices have 11 fields.\n[openstudio.model.PlanarSurface] <-2> After clearExtensibleGroups in setVertices have 11 fields.\n[openstudio.model.PlanarSurface] <-2> After setVertices have 23 fields.  Size of vertices is 4.\n[openstudio.model.PlanarSurface] <-2> Before setVertices have 11 fields.\n[openstudio.model.PlanarSurface] <-2> After clearExtensibleGroups in setVertices have 11 fields.\n[openstudio.model.PlanarSurface] <-2> After setVertices have 23 fields.  Size of vertices is 4.\n[openstudio.model.PlanarSurface] <-2> Before setVertices have 11 fields.\n[openstudio.model.PlanarSurface] <-2> After clearExtensibleGroups in setVertices have 11 fields.\n[openstudio.model.PlanarSurface] <-2> After setVertices have 23 fields.  Size of vertices is 4.\n[openstudio.model.PlanarSurface] <-2> Before setVertices have 11 fields.\n[openstudio.model.PlanarSurface] <-2> After clearExtensibleGroups in setVertices have 11 fields.\n[openstudio.model.PlanarSurface] <-2> After setVertices have 23 fields.  Size of vertices is 4.\n[openstudio.model.PlanarSurface] <-2> Before setVertices have 11 fields.\n[openstudio.model.PlanarSurface] <-2> After clearExtensibleGroups in setVertices have 11 fields.\n[openstudio.model.PlanarSurface] <-2> After setVertices have 23 fields.  Size of vertices is 4.\n[openstudio.model.PlanarSurface] <-2> Before setVertices have 11 fields.\n[openstudio.model.PlanarSurface] <-2> After clearExtensibleGroups in setVertices have 11 fields.\n[openstudio.model.PlanarSurface] <-2> After setVertices have 23 fields.  Size of vertices is 4.\n[openstudio.model.PlanarSurface] <-2> Before setVertices have 23 fields.\n[openstudio.model.PlanarSurface] <-2> After clearExtensibleGroups in setVertices have 11 fields.\n[openstudio.model.PlanarSurface] <-2> After setVertices have 23 fields.  Size of vertices is 4.\n[openstudio.model.PlanarSurface] <-2> Before setVertices have 23 fields.\n[openstudio.model.PlanarSurface] <-2> After clearExtensibleGroups in setVertices have 11 fields.\n[openstudio.model.PlanarSurface] <-2> After setVertices have 23 fields.  Size of vertices is 4.\n[openstudio.model.PlanarSurface] <-2> Before setVertices have 23 fields.\n[openstudio.model.PlanarSurface] <-2> After clearExtensibleGroups in setVertices have 11 fields.\n[openstudio.model.PlanarSurface] <-2> After setVertices have 23 fields.  Size of vertices is 4.\n[openstudio.model.PlanarSurface] <-2> Before setVertices have 23 fields.\n[openstudio.model.PlanarSurface] <-2> After clearExtensibleGroups in setVertices have 11 fields.\n[openstudio.model.PlanarSurface] <-2> After setVertices have 23 fields.  Size of vertices is 4.\n[openstudio.model.PlanarSurface] <-2> Before setVertices have 23 fields.\n[openstudio.model.PlanarSurface] <-2> After clearExtensibleGroups in setVertices have 11 fields.\n[openstudio.model.PlanarSurface] <-2> After setVertices have 23 fields.  Size of vertices is 4.\n[openstudio.model.PlanarSurface] <-2> Before setVertices have 23 fields.\n[openstudio.model.PlanarSurface] <-2> After clearExtensibleGroups in setVertices have 11 fields.\n[openstudio.model.PlanarSurface] <-2> After setVertices have 23 fields.  Size of vertices is 4.\n[openstudio.model.PlanarSurface] <-2> Before setVertices have 11 fields.\n[openstudio.model.PlanarSurface] <-2> After clearExtensibleGroups in setVertices have 11 fields.\n[openstudio.model.PlanarSurface] <-2> After setVertices have 23 fields.  Size of vertices is 4.\n[openstudio.model.PlanarSurface] <-2> Before setVertices have 11 fields.\n[openstudio.model.PlanarSurface] <-2> After clearExtensibleGroups in setVertices have 11 fields.\n[openstudio.model.PlanarSurface] <-2> After setVertices have 23 fields.  Size of vertices is 4.\n[openstudio.model.PlanarSurface] <-2> Before setVertices have 11 fields.\n[openstudio.model.PlanarSurface] <-2> After clearExtensibleGroups in setVertices have 11 fields.\n[openstudio.model.PlanarSurface] <-2> After setVertices have 23 fields.  Size of vertices is 4.\n[openstudio.model.PlanarSurface] <-2> Before setVertices have 11 fields.\n[openstudio.model.PlanarSurface] <-2> After clearExtensibleGroups in setVertices have 11 fields.\n[openstudio.model.PlanarSurface] <-2> After setVertices have 23 fields.  Size of vertices is 4.\n[openstudio.model.PlanarSurface] <-2> Before setVertices have 11 fields.\n[openstudio.model.PlanarSurface] <-2> After clearExtensibleGroups in setVertices have 11 fields.\n[openstudio.model.PlanarSurface] <-2> After setVertices have 23 fields.  Size of vertices is 4.\n[openstudio.model.PlanarSurface] <-2> Before setVertices have 11 fields.\n[openstudio.model.PlanarSurface] <-2> After clearExtensibleGroups in setVertices have 11 fields.\n[openstudio.model.PlanarSurface] <-2> After setVertices have 23 fields.  Size of vertices is 4.\n[openstudio.model.PlanarSurface] <-2> Before setVertices have 23 fields.\n[openstudio.model.PlanarSurface] <-2> After clearExtensibleGroups in setVertices have 11 fields.\n[openstudio.model.PlanarSurface] <-2> After setVertices have 23 fields.  Size of vertices is 4.\n[openstudio.model.PlanarSurface] <-2> Before setVertices have 23 fields.\n[openstudio.model.PlanarSurface] <-2> After clearExtensibleGroups in setVertices have 11 fields.\n[openstudio.model.PlanarSurface] <-2> After setVertices have 23 fields.  Size of vertices is 4.\n[openstudio.model.PlanarSurface] <-2> Before setVertices have 23 fields.\n[openstudio.model.PlanarSurface] <-2> After clearExtensibleGroups in setVertices have 11 fields.\n[openstudio.model.PlanarSurface] <-2> After setVertices have 23 fields.  Size of vertices is 4.\n[openstudio.model.PlanarSurface] <-2> Before setVertices have 23 fields.\n[openstudio.model.PlanarSurface] <-2> After clearExtensibleGroups in setVertices have 11 fields.\n[openstudio.model.PlanarSurface] <-2> After setVertices have 23 fields.  Size of vertices is 4.\n[openstudio.model.PlanarSurface] <-2> Before setVertices have 23 fields.\n[openstudio.model.PlanarSurface] <-2> After clearExtensibleGroups in setVertices have 11 fields.\n[openstudio.model.PlanarSurface] <-2> After setVertices have 23 fields.  Size of vertices is 4.\n[openstudio.model.PlanarSurface] <-2> Before setVertices have 23 fields.\n[openstudio.model.PlanarSurface] <-2> After clearExtensibleGroups in setVertices have 11 fields.\n[openstudio.model.PlanarSurface] <-2> After setVertices have 23 fields.  Size of vertices is 4.\n[openstudio.model.PlanarSurface] <-2> Before setVertices have 11 fields.\n[openstudio.model.PlanarSurface] <-2> After clearExtensibleGroups in setVertices have 11 fields.\n[openstudio.model.PlanarSurface] <-2> After setVertices have 23 fields.  Size of vertices is 4.\n[openstudio.model.PlanarSurface] <-2> Before setVertices have 11 fields.\n[openstudio.model.PlanarSurface] <-2> After clearExtensibleGroups in setVertices have 11 fields.\n[openstudio.model.PlanarSurface] <-2> After setVertices have 23 fields.  Size of vertices is 4.\n[openstudio.model.PlanarSurface] <-2> Before setVertices have 11 fields.\n[openstudio.model.PlanarSurface] <-2> After clearExtensibleGroups in setVertices have 11 fields.\n[openstudio.model.PlanarSurface] <-2> After setVertices have 23 fields.  Size of vertices is 4.\n[openstudio.model.PlanarSurface] <-2> Before setVertices have 11 fields.\n[openstudio.model.PlanarSurface] <-2> After clearExtensibleGroups in setVertices have 11 fields.\n[openstudio.model.PlanarSurface] <-2> After setVertices have 23 fields.  Size of vertices is 4.\n[openstudio.model.PlanarSurface] <-2> Before setVertices have 11 fields.\n[openstudio.model.PlanarSurface] <-2> After clearExtensibleGroups in setVertices have 11 fields.\n[openstudio.model.PlanarSurface] <-2> After setVertices have 23 fields.  Size of vertices is 4.\n[openstudio.model.PlanarSurface] <-2> Before setVertices have 11 fields.\n[openstudio.model.PlanarSurface] <-2> After clearExtensibleGroups in setVertices have 11 fields.\n[openstudio.model.PlanarSurface] <-2> After setVertices have 23 fields.  Size of vertices is 4.\n[openstudio.model.PlanarSurface] <-2> Before setVertices have 23 fields.\n[openstudio.model.PlanarSurface] <-2> After clearExtensibleGroups in setVertices have 11 fields.\n[openstudio.model.PlanarSurface] <-2> After setVertices have 23 fields.  Size of vertices is 4.\n[openstudio.model.PlanarSurface] <-2> Before setVertices have 23 fields.\n[openstudio.model.PlanarSurface] <-2> After clearExtensibleGroups in setVertices have 11 fields.\n[openstudio.model.PlanarSurface] <-2> After setVertices have 23 fields.  Size of vertices is 4.\n[openstudio.model.PlanarSurface] <-2> Before setVertices have 23 fields.\n[openstudio.model.PlanarSurface] <-2> After clearExtensibleGroups in setVertices have 11 fields.\n[openstudio.model.PlanarSurface] <-2> After setVertices have 23 fields.  Size of vertices is 4.\n[openstudio.model.PlanarSurface] <-2> Before setVertices have 23 fields.\n[openstudio.model.PlanarSurface] <-2> After clearExtensibleGroups in setVertices have 11 fields.\n[openstudio.model.PlanarSurface] <-2> After setVertices have 23 fields.  Size of vertices is 4.\n[openstudio.model.PlanarSurface] <-2> Before setVertices have 23 fields.\n[openstudio.model.PlanarSurface] <-2> After clearExtensibleGroups in setVertices have 11 fields.\n[openstudio.model.PlanarSurface] <-2> After setVertices have 23 fields.  Size of vertices is 4.\n[openstudio.model.PlanarSurface] <-2> Before setVertices have 23 fields.\n[openstudio.model.PlanarSurface] <-2> After clearExtensibleGroups in setVertices have 11 fields.\n[openstudio.model.PlanarSurface] <-2> After setVertices have 23 fields.  Size of vertices is 4.\n[openstudio.model.PlanarSurface] <-2> Before setVertices have 11 fields.\n[openstudio.model.PlanarSurface] <-2> After clearExtensibleGroups in setVertices have 11 fields.\n[openstudio.model.PlanarSurface] <-2> After setVertices have 23 fields.  Size of vertices is 4.\n[openstudio.model.PlanarSurface] <-2> Before setVertices have 11 fields.\n[openstudio.model.PlanarSurface] <-2> After clearExtensibleGroups in setVertices have 11 fields.\n[openstudio.model.PlanarSurface] <-2> After setVertices have 23 fields.  Size of vertices is 4.\n[openstudio.model.PlanarSurface] <-2> Before setVertices have 11 fields.\n[openstudio.model.PlanarSurface] <-2> After clearExtensibleGroups in setVertices have 11 fields.\n[openstudio.model.PlanarSurface] <-2> After setVertices have 23 fields.  Size of vertices is 4.\n[openstudio.model.PlanarSurface] <-2> Before setVertices have 11 fields.\n[openstudio.model.PlanarSurface] <-2> After clearExtensibleGroups in setVertices have 11 fields.\n[openstudio.model.PlanarSurface] <-2> After setVertices have 23 fields.  Size of vertices is 4.\n[openstudio.model.PlanarSurface] <-2> Before setVertices have 11 fields.\n[openstudio.model.PlanarSurface] <-2> After clearExtensibleGroups in setVertices have 11 fields.\n[openstudio.model.PlanarSurface] <-2> After setVertices have 23 fields.  Size of vertices is 4.\n[openstudio.model.PlanarSurface] <-2> Before setVertices have 11 fields.\n[openstudio.model.PlanarSurface] <-2> After clearExtensibleGroups in setVertices have 11 fields.\n[openstudio.model.PlanarSurface] <-2> After setVertices have 23 fields.  Size of vertices is 4.\n[openstudio.model.PlanarSurface] <-2> Before setVertices have 23 fields.\n[openstudio.model.PlanarSurface] <-2> After clearExtensibleGroups in setVertices have 11 fields.\n[openstudio.model.PlanarSurface] <-2> After setVertices have 23 fields.  Size of vertices is 4.\n[openstudio.model.PlanarSurface] <-2> Before setVertices have 23 fields.\n[openstudio.model.PlanarSurface] <-2> After clearExtensibleGroups in setVertices have 11 fields.\n[openstudio.model.PlanarSurface] <-2> After setVertices have 23 fields.  Size of vertices is 4.\n[openstudio.model.PlanarSurface] <-2> Before setVertices have 23 fields.\n[openstudio.model.PlanarSurface] <-2> After clearExtensibleGroups in setVertices have 11 fields.\n[openstudio.model.PlanarSurface] <-2> After setVertices have 23 fields.  Size of vertices is 4.\n[openstudio.model.PlanarSurface] <-2> Before setVertices have 23 fields.\n[openstudio.model.PlanarSurface] <-2> After clearExtensibleGroups in setVertices have 11 fields.\n[openstudio.model.PlanarSurface] <-2> After setVertices have 23 fields.  Size of vertices is 4.\n[openstudio.model.PlanarSurface] <-2> Before setVertices have 23 fields.\n[openstudio.model.PlanarSurface] <-2> After clearExtensibleGroups in setVertices have 11 fields.\n[openstudio.model.PlanarSurface] <-2> After setVertices have 23 fields.  Size of vertices is 4.\n[openstudio.model.PlanarSurface] <-2> Before setVertices have 23 fields.\n[openstudio.model.PlanarSurface] <-2> After clearExtensibleGroups in setVertices have 11 fields.\n[openstudio.model.PlanarSurface] <-2> After setVertices have 23 fields.  Size of vertices is 4.\n[openstudio.model.PlanarSurface] <-2> Before setVertices have 11 fields.\n[openstudio.model.PlanarSurface] <-2> After clearExtensibleGroups in setVertices have 11 fields.\n[openstudio.model.PlanarSurface] <-2> After setVertices have 23 fields.  Size of vertices is 4.\n[openstudio.model.PlanarSurface] <-2> Before setVertices have 11 fields.\n[openstudio.model.PlanarSurface] <-2> After clearExtensibleGroups in setVertices have 11 fields.\n[openstudio.model.PlanarSurface] <-2> After setVertices have 23 fields.  Size of vertices is 4.\n[openstudio.model.PlanarSurface] <-2> Before setVertices have 11 fields.\n[openstudio.model.PlanarSurface] <-2> After clearExtensibleGroups in setVertices have 11 fields.\n[openstudio.model.PlanarSurface] <-2> After setVertices have 23 fields.  Size of vertices is 4.\n[openstudio.model.PlanarSurface] <-2> Before setVertices have 11 fields.\n[openstudio.model.PlanarSurface] <-2> After clearExtensibleGroups in setVertices have 11 fields.\n[openstudio.model.PlanarSurface] <-2> After setVertices have 23 fields.  Size of vertices is 4.\n[openstudio.model.PlanarSurface] <-2
[...]
                  "name" : "natural_gas_exterior_equipment_ip",
                  "units" : "MBtu",
                  "value" : 0
               },
               {
                  "name" : "natural_gas_fans_ip",
                  "units" : "MBtu",
                  "value" : 0
               },
               {
                  "name" : "natural_gas_pumps_ip",
                  "units" : "MBtu",
                  "value" : 0
               },
               {
                  "name" : "natural_gas_heat_rejection_ip",
                  "units" : "MBtu",
                  "value" : 0
               },
               {
                  "name" : "natural_gas_humidification_ip",
                  "units" : "MBtu",
                  "value" : 0
               },
               {
                  "name" : "natural_gas_heat_recovery_ip",
                  "units" : "MBtu",
                  "value" : 0
               },
               {
                  "name" : "natural_gas_water_systems_ip",
                  "units" : "MBtu",
                  "value" : 85.54632418356681
               },
               {
                  "name" : "natural_gas_refrigeration_ip",
                  "units" : "MBtu",
                  "value" : 0
               },
               {
                  "name" : "natural_gas_generators_ip",
                  "units" : "MBtu",
                  "value" : 0
               },
               {
                  "name" : "natural_gas_ip",
                  "units" : "MBtu",
                  "value" : 85.54632418356681
               },
               {
                  "name" : "additional_fuel_heating_ip",
                  "units" : "MBtu",
                  "value" : 0
               },
               {
                  "name" : "additional_fuel_cooling_ip",
                  "units" : "MBtu",
                  "value" : 0
               },
               {
                  "name" : "additional_fuel_interior_lighting_ip",
                  "units" : "MBtu",
                  "value" : 0
               },
               {
                  "name" : "additional_fuel_exterior_lighting_ip",
                  "units" : "MBtu",
                  "value" : 0
               },
               {
                  "name" : "additional_fuel_interior_equipment_ip",
                  "units" : "MBtu",
                  "value" : 0
               },
               {
                  "name" : "additional_fuel_exterior_equipment_ip",
                  "units" : "MBtu",
                  "value" : 0
               },
               {
                  "name" : "additional_fuel_fans_ip",
                  "units" : "MBtu",
                  "value" : 0
               },
               {
                  "name" : "additional_fuel_pumps_ip",
                  "units" : "MBtu",
                  "value" : 0
               },
               {
                  "name" : "additional_fuel_heat_rejection_ip",
                  "units" : "MBtu",
                  "value" : 0
               },
               {
                  "name" : "additional_fuel_humidification_ip",
                  "units" : "MBtu",
                  "value" : 0
               },
               {
                  "name" : "additional_fuel_heat_recovery_ip",
                  "units" : "MBtu",
                  "value" : 0
               },
               {
                  "name" : "additional_fuel_water_systems_ip",
                  "units" : "MBtu",
                  "value" : 0
               },
               {
                  "name" : "additional_fuel_refrigeration_ip",
                  "units" : "MBtu",
                  "value" : 0
               },
               {
                  "name" : "additional_fuel_generators_ip",
                  "units" : "MBtu",
                  "value" : 0
               },
               {
                  "name" : "additional_fuel_ip",
                  "units" : "MBtu",
                  "value" : 0
               },
               {
                  "name" : "district_cooling_heating_ip",
                  "units" : "MBtu",
                  "value" : 0
               },
               {
                  "name" : "district_cooling_cooling_ip",
                  "units" : "MBtu",
                  "value" : 0
               },
               {
                  "name" : "district_cooling_interior_lighting_ip",
                  "units" : "MBtu",
                  "value" : 0
               },
               {
                  "name" : "district_cooling_exterior_lighting_ip",
                  "units" : "MBtu",
                  "value" : 0
               },
               {
                  "name" : "district_cooling_interior_equipment_ip",
                  "units" : "MBtu",
                  "value" : 0
               },
               {
                  "name" : "district_cooling_exterior_equipment_ip",
                  "units" : "MBtu",
                  "value" : 0
               },
               {
                  "name" : "district_cooling_fans_ip",
                  "units" : "MBtu",
                  "value" : 0
               },
               {
                  "name" : "district_cooling_pumps_ip",
                  "units" : "MBtu",
                  "value" : 0
               },
               {
                  "name" : "district_cooling_heat_rejection_ip",
                  "units" : "MBtu",
                  "value" : 0
               },
               {
                  "name" : "district_cooling_humidification_ip",
                  "units" : "MBtu",
                  "value" : 0
               },
               {
                  "name" : "district_cooling_heat_recovery_ip",
                  "units" : "MBtu",
                  "value" : 0
               },
               {
                  "name" : "district_cooling_water_systems_ip",
                  "units" : "MBtu",
                  "value" : 0
               },
               {
                  "name" : "district_cooling_refrigeration_ip",
                  "units" : "MBtu",
                  "value" : 0
               },
               {
                  "name" : "district_cooling_generators_ip",
                  "units" : "MBtu",
                  "value" : 0
               },
               {
                  "name" : "district_cooling_ip",
                  "units" : "MBtu",
                  "value" : 0
               },
               {
                  "name" : "district_heating_heating_ip",
                  "units" : "MBtu",
                  "value" : 0
               },
               {
                  "name" : "district_heating_cooling_ip",
                  "units" : "MBtu",
                  "value" : 0
               },
               {
                  "name" : "district_heating_interior_lighting_ip",
                  "units" : "MBtu",
                  "value" : 0
               },
               {
                  "name" : "district_heating_exterior_lighting_ip",
                  "units" : "MBtu",
                  "value" : 0
               },
               {
                  "name" : "district_heating_interior_equipment_ip",
                  "units" : "MBtu",
                  "value" : 0
               },
               {
                  "name" : "district_heating_exterior_equipment_ip",
                  "units" : "MBtu",
                  "value" : 0
               },
               {
                  "name" : "district_heating_fans_ip",
                  "units" : "MBtu",
                  "value" : 0
               },
               {
                  "name" : "district_heating_pumps_ip",
                  "units" : "MBtu",
                  "value" : 0
               },
               {
                  "name" : "district_heating_heat_rejection_ip",
                  "units" : "MBtu",
                  "value" : 0
               },
               {
                  "name" : "district_heating_humidification_ip",
                  "units" : "MBtu",
                  "value" : 0
               },
               {
                  "name" : "district_heating_heat_recovery_ip",
                  "units" : "MBtu",
                  "value" : 0
               },
               {
                  "name" : "district_heating_water_systems_ip",
                  "units" : "MBtu",
                  "value" : 0
               },
               {
                  "name" : "district_heating_refrigeration_ip",
                  "units" : "MBtu",
                  "value" : 0
               },
               {
                  "name" : "district_heating_generators_ip",
                  "units" : "MBtu",
                  "value" : 0
               },
               {
                  "name" : "district_heating_ip",
                  "units" : "MBtu",
                  "value" : 0
               },
               {
                  "name" : "water_heating_ip",
                  "units" : "MBtu",
                  "value" : 0
               },
               {
                  "name" : "water_cooling_ip",
                  "units" : "MBtu",
                  "value" : 0
               },
               {
                  "name" : "water_interior_lighting_ip",
                  "units" : "MBtu",
                  "value" : 0
               },
               {
                  "name" : "water_exterior_lighting_ip",
                  "units" : "MBtu",
                  "value" : 0
               },
               {
                  "name" : "water_interior_equipment_ip",
                  "units" : "MBtu",
                  "value" : 0
               },
               {
                  "name" : "water_exterior_equipment_ip",
                  "units" : "MBtu",
                  "value" : 0
               },
               {
                  "name" : "water_fans_ip",
                  "units" : "MBtu",
                  "value" : 0
               },
               {
                  "name" : "water_pumps_ip",
                  "units" : "MBtu",
                  "value" : 0
               },
               {
                  "name" : "water_heat_rejection_ip",
                  "units" : "MBtu",
                  "value" : 0
               },
               {
                  "name" : "water_humidification_ip",
                  "units" : "MBtu",
                  "value" : 0
               },
               {
                  "name" : "water_heat_recovery_ip",
                  "units" : "MBtu",
                  "value" : 0
               },
               {
                  "name" : "water_water_systems_ip",
                  "units" : "MBtu",
                  "value" : 0
               },
               {
                  "name" : "water_refrigeration_ip",
                  "units" : "MBtu",
                  "value" : 0
               },
               {
                  "name" : "water_generators_ip",
                  "units" : "MBtu",
                  "value" : 0
               },
               {
                  "name" : "water_ip",
                  "units" : "MBtu",
                  "value" : 0
               },
               {
                  "name" : "typical_iead_roof_r_20_83",
                  "units" : "ft^2",
                  "value" : 12504.350554986666
               },
               {
                  "name" : "typical_insulated_exterior_mass_wall_r_9_62",
                  "units" : "ft^2",
                  "value" : 18302.900444525745
               },
               {
                  "name" : "u_0_52_shgc_0_40_dbl_ref_d_clr_6_mm_13_mm_air",
                  "units" : "ft^2",
                  "value" : 6182.8982470414767
               },
               {
                  "name" : "gross_window_wall_ratio",
                  "units" : "%",
                  "value" : 25.25
               },
               {
                  "name" : "gross_window_wall_ratio_conditioned",
                  "units" : "%",
                  "value" : 25.25
               },
               {
                  "name" : "skylight_roof_ratio",
                  "units" : "%",
                  "value" : 0
               },
               {
                  "name" : "space_type_office_whole_building_md_office_90_1_2010",
                  "units" : "ft^2",
                  "value" : 50017.402219946649
               },
               {
                  "name" : "exterior_lighting_total_power",
                  "units" : "W",
                  "value" : 9621.25
               },
               {
                  "name" : "exterior_lighting_total_consumption",
                  "units" : "kWh",
                  "value" : 674883.33333333337
               },
               {
                  "name" : "office_whole_building_md_office_90_1_2010_service_water_use_0_79_gpm_at_140_f",
                  "units" : "gal/min",
                  "value" : 0.79277228103639485
               },
               {
                  "name" : "inflation_approach",
                  "value" : "Constant Dollar"
               },
               {
                  "name" : "analysis_length",
                  "units" : "yrs",
                  "value" : 25
               },
               {
                  "name" : "annual_peak_electric_demand",
                  "units" : "kW",
                  "value" : 350.94357000000002
               },
               {
                  "name" : "first_year_capital_cost",
                  "units" : "$",
                  "value" : 0
               },
               {
                  "name" : "annual_utility_cost",
                  "units" : "$",
                  "value" : 0
               },
               {
                  "name" : "total_lifecycle_cost",
                  "units" : "$",
                  "value" : 0
               }
            ],
            "step_warnings" : []
         }
      },
      {
         "arguments" : {},
         "description" : "Timeseries data for DC metamodels",
         "measure_dir_name" : "dc_timeseries_reports",
         "name" : "dc_timeseries_reports",
         "result" : {
            "completed_at" : "20200426T113609Z",
            "measure_class_name" : "DcTimeseriesReports",
            "measure_display_name" : "DC Timeseries Reports",
            "measure_name" : "dc_timeseries_reports",
            "measure_taxonomy" : "Reporting.QAQC",
            "measure_type" : "ReportingMeasure",
            "measure_uid" : "2c8fb9a0-a618-4439-b4ca-3751f32bfd3e",
            "measure_version_id" : "40bc432a-a44a-4647-9f39-1c8fe60f01fc",
            "measure_version_modified" : "20200415T200842Z",
            "measure_xml_checksum" : "15BF4E57",
            "started_at" : "20200426T113608Z",
            "stderr" : "",
            "stdout" : "[openstudio.energyplus.SqlFile] <-2> Dictionary Built\n[openstudio.energyplus.SqlFile] <-2> Making time series for envPeriod = 'RUN PERIOD 1', reportingFrequency = 'Hourly', timeSeriesName = 'Cooling:Electricity', keyValue = ''\n[openstudio.energyplus.SqlFile] <-2> RUN PERIOD 1\n[openstudio.energyplus.SqlFile] <-2> Cooling:Electricity\n[openstudio.energyplus.SqlFile] <-2> SQL Query:\nSELECT dt.VariableValue, Time.Year, Time.Month, Time.Day, Time.Interval FROM ReportMeterData dt INNER JOIN Time ON Time.timeIndex = dt.TimeIndex WHERE  dt.ReportMeterDataDictionaryIndex=2909 AND Time.EnvironmentPeriodIndex = 4Return Code:\n100\n[openstudio.energyplus.SqlFile] <-2> Time series found\n[openstudio.energyplus.SqlFile] <-2> Making time series for envPeriod = 'RUN PERIOD 1', reportingFrequency = 'Hourly', timeSeriesName = 'Site Outdoor Air Drybulb Temperature', keyValue = 'Environment'\n[openstudio.energyplus.SqlFile] <-2> RUN PERIOD 1\n[openstudio.energyplus.SqlFile] <-2> Site Outdoor Air Drybulb Temperature\n[openstudio.energyplus.SqlFile] <-2> SQL Query:\nSELECT dt.VariableValue, Time.Year, Time.Month, Time.Day, Time.Interval FROM ReportVariableData dt INNER JOIN Time ON Time.timeIndex = dt.TimeIndex WHERE  dt.ReportVariableDataDictionaryIndex=8 AND Time.EnvironmentPeriodIndex = 4Return Code:\n100\n[openstudio.energyplus.SqlFile] <-2> Time series found\n[openstudio.energyplus.SqlFile] <-2> Making time series for envPeriod = 'RUN PERIOD 1', reportingFrequency = 'Hourly', timeSeriesName = 'Site Outdoor Air Relative Humidity', keyValue = 'Environment'\n[openstudio.energyplus.SqlFile] <-2> RUN PERIOD 1\n[openstudio.energyplus.SqlFile] <-2> Site Outdoor Air Relative Humidity\n[openstudio.energyplus.SqlFile] <-2> SQL Query:\nSELECT dt.VariableValue, Time.Year, Time.Month, Time.Day, Time.Interval FROM ReportVariableData dt INNER JOIN Time ON Time.timeIndex = dt.TimeIndex WHERE  dt.ReportVariableDataDictionaryIndex=10 AND Time.EnvironmentPeriodIndex = 4Return Code:\n100\n[openstudio.energyplus.SqlFile] <-2> Time series found\n[openstudio.energyplus.SqlFile] <-2> Making time series for envPeriod = 'RUN PERIOD 1', reportingFrequency = 'Hourly', timeSeriesName = 'Heating:Electricity', keyValue = ''\n[openstudio.energyplus.SqlFile] <-2> RUN PERIOD 1\n[openstudio.energyplus.SqlFile] <-2> Heating:Electricity\n[openstudio.energyplus.SqlFile] <-2> SQL Query:\nSELECT dt.VariableValue, Time.Year, Time.Month, Time.Day, Time.Interval FROM ReportMeterData dt INNER JOIN Time ON Time.timeIndex = dt.TimeIndex WHERE  dt.ReportMeterDataDictionaryIndex=2761 AND Time.EnvironmentPeriodIndex = 4Return Code:\n100\n[openstudio.energyplus.SqlFile] <-2> Time series found\n[openstudio.energyplus.SqlFile] <-2> Making time series for envPeriod = 'RUN PERIOD 1', reportingFrequency = 'Hourly', timeSeriesName = 'Cooling:Electricity', keyValue = ''\n[openstudio.energyplus.SqlFile] <-2> Time series found\n[openstudio.energyplus.SqlFile] <-2> Making time series for envPeriod = 'RUN PERIOD 1', reportingFrequency = 'Hourly', timeSeriesName = 'Electricity:Facility', keyValue = ''\n[openstudio.energyplus.SqlFile] <-2> RUN PERIOD 1\n[openstudio.energyplus.SqlFile] <-2> Electricity:Facility\n[openstudio.energyplus.SqlFile] <-2> SQL Query:\nSELECT dt.VariableValue, Time.Year, Time.Month, Time.Day, Time.Interval FROM ReportMeterData dt INNER JOIN Time ON Time.timeIndex = dt.TimeIndex WHERE  dt.ReportMeterDataDictionaryIndex=14 AND Time.EnvironmentPeriodIndex = 4Return Code:\n100\n[openstudio.energyplus.SqlFile] <-2> Time series found\n[openstudio.energyplus.SqlFile] <-2> Making time series for envPeriod = 'RUN PERIOD 1', reportingFrequency = 'Hourly', timeSeriesName = 'Gas:Facility', keyValue = ''\n[openstudio.energyplus.SqlFile] <-2> RUN PERIOD 1\n[openstudio.energyplus.SqlFile] <-2> Gas:Facility\n[openstudio.energyplus.SqlFile] <-2> SQL Query:\nSELECT dt.VariableValue, Time.Year, Time.Month, Time.Day, Time.Interval FROM ReportMeterData dt INNER JOIN Time ON Time.timeIndex = dt.TimeIndex WHERE  dt.ReportMeterDataDictionaryIndex=1176 AND Time.EnvironmentPeriodIndex = 4Return Code:\n100\n[openstudio.energyplus.SqlFile] <-2> Time series found\n",
            "step_errors" : [],
            "step_files" : [
               "/mnt/openstudio/analysis_179f9bb9-dd28-4d2c-84f7-5bdfd8f4d421/data_point_329c3aa6-4b7c-4ceb-b931-24b1d0348803/run/006_dc_timeseries_reports/report_timeseries.csv"
            ],
            "step_info" : [
               "Date Time,Month,Day,Day of Week,Hour,Minute,Site Outdoor Air Drybulb Temperature,Site Outdoor Air Relative Humidity,HeatingElectricity,HeatingGas,CoolingElectricity,ElectricityFacility,GasFacility"
            ],
            "step_result" : "Success",
            "step_values" : [
               {
                  "name" : "energyplus_runtime",
                  "units" : "sec",
                  "value" : 80.640000000000001
               }
            ],
            "step_warnings" : []
         }
      }
   ],
   "updated_at" : "20200426T113614Z",
   "weather_file" : "USA_VA_Arlington-Ronald.Reagan.Washington.Natl.AP.724050_TMY3.epw"
}
