{
   "completed_at" : "20200426T063132Z",
   "completed_status" : "Success",
   "created_at" : "2020-04-26 06:30:13 +0000",
   "current_step" : 7,
   "description" : "",
   "eplusout_err" : "Program Version,EnergyPlus, Version 9.2.0-921312fa1d, YMD=2020.04.26 06:30,\n   ************* Beginning Zone Sizing Calculations\n   ** Warning ** ProcessScheduleInput: DecodeHHMMField, Invalid \"until\" field value is not a multiple of the minutes for each timestep: 04:55\n   **   ~~~   ** Other errors may result. Occurred in Day Schedule=1 ZONE PVAV OCC SCH DEFAULT\n   ** Warning ** ProcessScheduleInput: DecodeHHMMField, Invalid \"until\" field value is not a multiple of the minutes for each timestep: 17:02\n   **   ~~~   ** Other errors may result. Occurred in Day Schedule=1 ZONE PVAV OCC SCH DEFAULT\n   ** Warning ** ProcessScheduleInput: DecodeHHMMField, Invalid \"until\" field value is not a multiple of the minutes for each timestep: 12:59\n   **   ~~~   ** Other errors may result. Occurred in Day Schedule=1 ZONE PVAV OCC SCH SATURDAY\n   ** Warning ** ProcessScheduleInput: DecodeHHMMField, Invalid \"until\" field value is not a multiple of the minutes for each timestep: 04:55\n   **   ~~~   ** Other errors may result. Occurred in Day Schedule=1 ZONE PVAV 1 OCC SCH DEFAULT\n   ** Warning ** ProcessScheduleInput: DecodeHHMMField, Invalid \"until\" field value is not a multiple of the minutes for each timestep: 17:02\n   **   ~~~   ** Other errors may result. Occurred in Day Schedule=1 ZONE PVAV 1 OCC SCH DEFAULT\n   ** Warning ** ProcessScheduleInput: DecodeHHMMField, Invalid \"until\" field value is not a multiple of the minutes for each timestep: 12:59\n   **   ~~~   ** Other errors may result. Occurred in Day Schedule=1 ZONE PVAV 1 OCC SCH SATURDAY\n   ** Warning ** ProcessScheduleInput: DecodeHHMMField, Invalid \"until\" field value is not a multiple of the minutes for each timestep: 04:55\n   **   ~~~   ** Other errors may result. Occurred in Day Schedule=1 ZONE PVAV 2 OCC SCH DEFAULT\n   ** Warning ** ProcessScheduleInput: DecodeHHMMField, Invalid \"until\" field value is not a multiple of the minutes for each timestep: 17:02\n   **   ~~~   ** Other errors may result. Occurred in Day Schedule=1 ZONE PVAV 2 OCC SCH DEFAULT\n   ** Warning ** ProcessScheduleInput: DecodeHHMMField, Invalid \"until\" field value is not a multiple of the minutes for each timestep: 12:59\n   **   ~~~   ** Other errors may result. Occurred in Day Schedule=1 ZONE PVAV 2 OCC SCH SATURDAY\n   ** Warning ** ProcessScheduleInput: Schedule:Day:Interval=\"3 SPACE(S) OCC SCH DEFAULT\", Blank Schedule Type Limits Name input -- will not be validated.\n   ** Warning ** ProcessScheduleInput: Schedule:Day:Interval=\"3 SPACE(S) OCC SCH SATURDAY\", Blank Schedule Type Limits Name input -- will not be validated.\n   ** Warning ** ProcessScheduleInput: Schedule:Day:Interval=\"3 SPACE(S) OCC SCH SUMMER DESIGN DAY\", Blank Schedule Type Limits Name input -- will not be validated.\n   ** Warning ** ProcessScheduleInput: Schedule:Day:Interval=\"3 SPACE(S) OCC SCH SUNDAY\", Blank Schedule Type Limits Name input -- will not be validated.\n   ** Warning ** ProcessScheduleInput: Schedule:Day:Interval=\"3 SPACE(S) OCC SCH WINTER DESIGN DAY\", Blank Schedule Type Limits Name input -- will not be validated.\n   ** Warning ** ProcessScheduleInput: DecodeHHMMField, Invalid \"until\" field value is not a multiple of the minutes for each timestep: 06:05\n   **   ~~~   ** Other errors may result. Occurred in Day Schedule=BUILDING HOURS OF OPERATION NONRESIDENTIAL DEFAULT\n   ** Warning ** ProcessScheduleInput: DecodeHHMMField, Invalid \"until\" field value is not a multiple of the minutes for each timestep: 16:52\n   **   ~~~   ** Other errors may result. Occurred in Day Schedule=BUILDING HOURS OF OPERATION NONRESIDENTIAL DEFAULT\n   ** Warning ** ProcessScheduleInput: Schedule:Year=\"ELEVATOR SCHEDULE\", Blank Schedule Type Limits Name input -- will not be validated.\n   ** Warning ** ProcessScheduleInput: Schedule:Constant=\"ALWAYS OFF DISCRETE\", Blank Schedule Type Limits Name input -- will not be validated.\n   ** Warning ** ProcessScheduleInput: Schedule:Constant=\"ALWAYS ON CONTINUOUS\", Blank Schedule Type Limits Name input -- will not be validated.\n   ** Warning ** CheckUsedConstructions: There are 12 nominally unused constructions in input.\n   **   ~~~   ** For explicit details on each unused construction, use Output:Diagnostics,DisplayExtraWarnings;\n   ** Warning ** GetInternalHeatGains: People=\"OFFICE WHOLEBUILDING - MD OFFICE PEOPLE\" has comfort related schedules but no thermal comfort model selected.\n   **   ~~~   ** If schedules are specified for air velocity, clothing insulation, and/or work efficiency but no thermal comfort\n   **   ~~~   ** thermal comfort model is selected, the schedules will be listed as unused schedules in the .err file.\n   **   ~~~   ** To avoid these errors, select a valid thermal comfort model or eliminate these schedules in the PEOPLE input.\n   ** Warning ** GetInternalHeatGains: People=\"OFFICE WHOLEBUILDING - MD OFFICE PEOPLE\" has comfort related schedules but no thermal comfort model selected.\n   **   ~~~   ** If schedules are specified for air velocity, clothing insulation, and/or work efficiency but no thermal comfort\n   **   ~~~   ** thermal comfort model is selected, the schedules will be listed as unused schedules in the .err file.\n   **   ~~~   ** To avoid these errors, select a valid thermal comfort model or eliminate these schedules in the PEOPLE input.\n   ** Warning ** GetInternalHeatGains: People=\"OFFICE WHOLEBUILDING - MD OFFICE PEOPLE\" has comfort related schedules but no thermal comfort model selected.\n   **   ~~~   ** If schedules are specified for air velocity, clothing insulation, and/or work efficiency but no thermal comfort\n   **   ~~~   ** thermal comfort model is selected, the schedules will be listed as unused schedules in the .err file.\n   **   ~~~   ** To avoid these errors, select a valid thermal comfort model or eliminate these schedules in the PEOPLE input.\n   ** Warning ** GetDaylightingControls: Fraction of Zone controlled by the Daylighting reference points is < 1.0.\n   **   ~~~   ** ..discovered in \"Daylighting:Controls\" for Zone=\"ZONE OFFICE WHOLEBUILDING - MD OFFICE  - STORY GROUND\", only 0.20 of the zone is controlled.\n   ** Warning ** GetDaylightingControls: Fraction of Zone controlled by the Daylighting reference points is < 1.0.\n   **   ~~~   ** ..discovered in \"Daylighting:Controls\" for Zone=\"ZONE OFFICE WHOLEBUILDING - MD OFFICE  - STORY MID\", only 0.20 of the zone is controlled.\n   ** Warning ** GetDaylightingControls: Fraction of Zone controlled by the Daylighting reference points is < 1.0.\n   **   ~~~   ** ..discovered in \"Daylighting:Controls\" for Zone=\"ZONE OFFICE WHOLEBUILDING - MD OFFICE  - STORY TOP\", only 0.20 of the zone is controlled.\n   ************* Beginning System Sizing Calculations\n   ** Warning ** Since Zone Minimum Air Flow Input Method = CONSTANT, input for Fixed Minimum Air Flow Rate will be ignored.\n   **   ~~~   ** Occurs in AirTerminal:SingleDuct:VAV:Reheat = ZONE OFFICE WHOLEBUILDING - MD OFFICE  - STORY GROUND VAV TERMINAL\n   ** Warning ** Since Zone Minimum Air Flow Input Method = CONSTANT, input for Fixed Minimum Air Flow Rate will be ignored.\n   **   ~~~   ** Occurs in AirTerminal:SingleDuct:VAV:Reheat = ZONE OFFICE WHOLEBUILDING - MD OFFICE  - STORY MID VAV TERMINAL\n   ** Warning ** Since Zone Minimum Air Flow Input Method = CONSTANT, input for Fixed Minimum Air Flow Rate will be ignored.\n   **   ~~~   ** Occurs in AirTerminal:SingleDuct:VAV:Reheat = ZONE OFFICE WHOLEBUILDING - MD OFFICE  - STORY TOP VAV TERMINAL\n   ************* Beginning Plant Sizing Calculations\n   ** Warning ** The design coil load is zero for Coil:Heating:Water 1 ZONE PVAV 2 MAIN HTG COIL\n   **   ~~~   ** The autosize value for maximum water flow rate is zero\n   **   ~~~   ** To change this, input a value for UA, change the heating design day, or raise the\n   **   ~~~   **   system heating design supply air temperature. Also check to make sure the Preheat\n   **   ~~~   **   Design Temperature is not the same as the Central Heating Design Supply Air Temperature. \n   ** Warning ** Missing temperature setpoint for LeavingSetpointModulated mode Boiler named BOILER 531KBTU/HR 0.8 THERMAL EFF\n   **   ~~~   **   A temperature setpoint is needed at the outlet node of a boiler in variable flow mode\n   **   ~~~   **   use a Setpoint Manager to establish a setpoint at the boiler outlet node \n   **   ~~~   **   or use an EMS actuator to establish a setpoint at the boiler outlet node \n   **   ~~~   **   The overall loop setpoint will be assumed for Boiler. The simulation continues ... \n   ** Warning ** Output:Meter: invalid Key Name=\"EXTERIORLIGHTING:ELECTRICITY\" - not found.\n   ** Warning ** Output:Meter: invalid Key Name=\"DISTRICTCOOLING:FACILITY\" - not found.\n   ** Warning ** Output:Meter: invalid Key Name=\"DISTRICTHEATING:FACILITY\" - not found.\n   ** Warning ** Output:Meter:MeterFileOnly requested for \"Electricity:Facility\" (Hourly), already on \"Output:Meter\". Will report to both eplusout.eso and eplusout.mtr\n   ** Warning ** Output:Meter:MeterFileOnly requested for \"Gas:Facility\" (Hourly), already on \"Output:Meter\". Will report to both eplusout.eso and eplusout.mtr\n   ** Warning ** Output:Meter:MeterFileOnly: invalid Key Name=\"PROPANE:FACILITY\" - not found.\n   ** Warning ** Output:Meter:MeterFileOnly requested for \"Electricity:Facility\" (TimeStep), already on \"Output:Meter\". Will report to both eplusout.eso and eplusout.mtr\n   ************* Testing Individual Branch Integrity\n   ************* All Branches passed integrity testing\n   ************* Testing Individual Supply Air Path Integrity\n   ************* All Supply Air Paths passed integrity testing\n   ************* Testing Individual Return Air Path Integrity\n   ************* All Return Air Paths passed integrity testing\n   ************* No node connection errors were found.\n   ************* Beginning Simulation\n   ** Severe  ** CheckWarmupConvergence: Loads Initialization, Zone=\"ZONE OFFICE WHOLEBUILDING - MD OFFICE  - STORY GROUND\" did not converge after 25 warmup days.\n   **   ~~~   ** See Warmup Convergence Information in .eio file for details.\n   **   ~~~   ** ...Environment(RunPeriod)=\"RUN PERIOD 1\"\n   **   ~~~   ** ..Max Temp Comparison = 9.66E-003 vs Temperature Convergence Tolerance=0.40 - Pass Convergence\n   **   ~~~   ** ..Min Temp Comparison = 1.94E-002 vs Temperature Convergence Tolerance=0.40 - Pass Convergence\n   **   ~~~   ** ..Max Heat Load Comparison = 0.1193 vs Loads Convergence Tolerance=4.00E-002 - Fail Convergence\n   **   ~~~   ** ..Max Cool Load Comparison = 1.9710E-003 vs Loads Convergence Tolerance=4.00E-002 - Pass Convergence\n   ** Warning ** Processing Monthly Tabular Reports: Variable names not valid for this simulation\n   **   ~~~   ** ...use Output:Diagnostics,DisplayExtraWarnings; to show more details on individual variables.\n   ** Warning ** The resource referenced by LifeCycleCost:UsePriceEscalation= \"U.S. AVG  COMMERCIAL-ELECTRICITY\" has no energy cost. \n   **   ~~~   ** ... It is likely that the wrong resource is used. The resource should match the meter used in Utility:Tariff.\n   ** Warning ** The resource referenced by LifeCycleCost:UsePriceEscalation= \"U.S. AVG  COMMERCIAL-DISTILLATE OIL\" has no energy cost. \n   **   ~~~   ** ... It is likely that the wrong resource is used. The resource should match the meter used in Utility:Tariff.\n   ** Warning ** The resource referenced by LifeCycleCost:UsePriceEscalation= \"U.S. AVG  COMMERCIAL-RESIDUAL OIL\" has no energy cost. \n   **   ~~~   ** ... It is likely that the wrong resource is used. The resource should match the meter used in Utility:Tariff.\n   ** Warning ** The resource referenced by LifeCycleCost:UsePriceEscalation= \"U.S. AVG  COMMERCIAL-NATURAL GAS\" has no energy cost. \n   **   ~~~   ** ... It is likely that the wrong resource is used. The resource should match the meter used in Utility:Tariff.\n   ** Warning ** The resource referenced by LifeCycleCost:UsePriceEscalation= \"U.S. AVG  COMMERCIAL-COAL\" has no energy cost. \n   **   ~~~   ** ... It is likely that the wrong resource is used. The resource should match the meter used in Utility:Tariff.\n   ************* Simulation Error Summary *************\n   ************* There are 8 unused schedules in input.\n   ************* There are 8 unused week schedules in input.\n   ************* There are 21 unused day schedules in input.\n   ************* Use Output:Diagnostics,DisplayUnusedSchedules; to see them.\n   *************\n   ************* ===== Final Error Summary =====\n   ************* The following error categories occurred.  Consider correcting or noting.\n   ************* Loads Initialization did not Converge\n   ************* ..1) very high thermal mass such as very thick concrete (solution: increase max number of warmup\n   ************* ..   days in the BUILDING object);\n   ************* ..2) moderate mass and inadequate space conditioning such that the building keeps getting warmer\n   ************* ..   and warmer on successive days (solution: add HVAC, check building thermal properties,\n   ************* ..   check if infiltration is included, make sure HVAC properly controlled);\n   ************* ..3) a soil layer modeled below the concrete slab - (solution remove this layer and read about\n   ************* ..   ground temperatures in the Auxiliary Programs document).\n   ************* ..4) unreasonable (too small) limits in the BUILDING object for temperature (.4 default) or\n   ************* ..   loads tolerances (.04 default)\n   ************* Nominally Unused Constructions\n   ************* ..The nominally unused constructions warning is provided to alert you to potential conditions that can cause\n   ************* ..extra time during simulation. Each construction is calculated by the algorithm indicated in the HeatBalanceAlgorithm\n   ************* ..object. You may remove the constructions indicated (when you use the DisplayExtraWarnings option).\n   *************\n   ************* EnergyPlus Warmup Error Summary. During Warmup: 0 Warning; 1 Severe Errors.\n   ************* EnergyPlus Sizing Error Summary. During Sizing: 29 Warning; 0 Severe Errors.\n   ************* EnergyPlus Completed Successfully-- 44 Warning; 1 Severe Errors; Elapsed Time=00hr 00min 35.01sec\n",
   "file_format_version" : "0.0.1",
   "file_paths" : [
      "/mnt/openstudio/analysis_179f9bb9-dd28-4d2c-84f7-5bdfd8f4d421/data_point_0230c80c-b202-44c3-963a-76cf4dc1f345/generated_files",
      "../weather",
      "../seeds",
      "../seed",
      "./files",
      "./weather",
      "../../files",
      "../../weather",
      "./"
   ],
   "hash" : "717E0194",
   "measure_paths" : [ "../measures" ],
   "name" : "LHS Autogenerated 67",
   "osa_id" : "179f9bb9-dd28-4d2c-84f7-5bdfd8f4d421",
   "osd_id" : "0230c80c-b202-44c3-963a-76cf4dc1f345",
   "run_directory" : "./run",
   "seed_file" : "example_model.osm",
   "started_at" : "20200426T063017Z",
   "steps" : [
      {
         "arguments" : {
            "bar_division_method" : "Multiple Space Types - Individual Stories Sliced",
            "bar_sep_dist_mult" : 10,
            "bar_width" : 0,
            "bldg_type_a" : "MediumOffice",
            "bldg_type_b" : "MediumOffice",
            "bldg_type_b_fract_bldg_area" : 0,
            "bldg_type_c" : "SmallOffice",
            "bldg_type_c_fract_bldg_area" : 0,
            "bldg_type_d" : "SmallOffice",
            "bldg_type_d_fract_bldg_area" : 0,
            "bottom_story_ground_exposed_floor" : true,
            "building_rotation" : 87.686898802360517,
            "custom_height_bar" : true,
            "double_loaded_corridor" : "Primary Space Type",
            "floor_height" : 12,
            "make_mid_story_surfaces_adiabatic" : false,
            "ns_to_ew_ratio" : 3.496690300088376,
            "num_stories_above_grade" : 5,
            "num_stories_below_grade" : 0,
            "party_wall_fraction" : 0,
            "party_wall_stories_east" : 0,
            "party_wall_stories_north" : 0,
            "party_wall_stories_south" : 0,
            "party_wall_stories_west" : 0,
            "perim_mult" : 0,
            "single_floor_area" : 0,
            "space_type_sort_logic" : "Building Type > Size",
            "story_multiplier" : "Basements Ground Mid Top",
            "template" : "90.1-2010",
            "top_story_exterior_exposed_roof" : true,
            "total_bldg_floor_area" : 21585.101586743258,
            "use_upstream_args" : true,
            "wwr" : 0.27143587756995113
         },
         "description" : "Creates one or more rectangular building elements based on space type ratios of selected mix of building types, along with user arguments that describe the desired geometry characteristics.",
         "measure_dir_name" : "create_bar_from_doe_building_type_ratios",
         "name" : "create_bar_from_doe_building_type_ratios",
         "result" : {
            "completed_at" : "20200426T063028Z",
            "measure_class_name" : "CreateBarFromDOEBuildingTypeRatios",
            "measure_display_name" : "Create Bar From DOE Building Type Ratios",
            "measure_name" : "create_bar_from_doe_building_type_ratios",
            "measure_taxonomy" : "Envelope.Form",
            "measure_type" : "ModelMeasure",
            "measure_uid" : "0de3cff9-c805-42c4-964e-18cb43a22c63",
            "measure_version_id" : "27001969-6956-4e92-b9e8-57c3babf724c",
            "measure_version_modified" : "20200424T162236Z",
            "measure_xml_checksum" : "5F523097",
            "started_at" : "20200426T063024Z",
            "stderr" : "",
            "stdout" : "[openstudio.standards.standard] <-1> Using OpenStudio Standards version 0.2.10 with template 90.1-2010.\n[openstudio.standards.standard] <-1> Loading OpenStudio Standards data for 90.1-2010\n[openstudio.standards.standard] <-2> Loading JSON files from /var/oscli/gems/ruby/2.2.0/gems/openstudio-standards-0.2.10/lib/openstudio-standards/standards/ashrae_90_1\n[openstudio.standards.standard] <-2> Adding parking from ashrae_90_1.parking.json\n[openstudio.standards.standard] <-2> Adding schedules from ashrae_90_1.schedules.json\n[openstudio.standards.standard] <-2> Adding fans from ashrae_90_1.fans.json\n[openstudio.standards.standard] <-2> Adding climate_zones from ashrae_90_1.climate_zones.json\n[openstudio.standards.standard] <-2> Adding materials from ashrae_90_1.materials.json\n[openstudio.standards.standard] <-2> Adding climate_zone_sets from ashrae_90_1.climate_zone_sets.json\n[openstudio.standards.standard] <-2> Adding constructions from ashrae_90_1.constructions.json\n[openstudio.standards.standard] <-2> Adding size_category from Any.size_category.json\n[openstudio.standards.standard] <-2> Adding entryways from ashrae_90_1.entryways.json\n[openstudio.standards.standard] <-2> Adding hvac_inference from Any.hvac_inference.json\n[openstudio.standards.standard] <-2> Adding curves from ashrae_90_1.curves.json\n[openstudio.standards.standard] <-2> Loading JSON files from /var/oscli/gems/ruby/2.2.0/gems/openstudio-standards-0.2.10/lib/openstudio-standards/standards/ashrae_90_1/ashrae_90_1_2010\n[openstudio.standards.standard] <-2> Adding economizers from ashrae_90_1_2010.economizers.json\n[openstudio.standards.standard] <-2> Adding heat_pumps_heating from ashrae_90_1_2010.heat_pumps_heating.json\n[openstudio.standards.standard] <-2> Adding space_types from ashrae_90_1_2010.spc_typ.json\n[openstudio.standards.standard] <-2> Adding heat_pumps from ashrae_90_1_2010.heat_pumps.json\n[openstudio.standards.standard] <-2> Adding exterior_lighting from ashrae_90_1_2010.ext_ltg.json\n[openstudio.standards.standard] <-2> Adding prototype_inputs from ashrae_90_1_2010.prototype_inputs.json\n[openstudio.standards.standard] <-2> Adding motors from ashrae_90_1_2010.motors.json\n[openstudio.standards.standard] <-2> Adding water_source_heat_pumps_heating from ashrae_90_1_2010.water_source_heat_pumps_heating.json\n[openstudio.standards.standard] <-2> Adding refrigeration_walkins from ashrae_90_1_2010.refrigeration_walkins.json\n[openstudio.standards.standard] <-2> Adding ground_temperatures from ashrae_90_1_2010.ground_temperatures.json\n[openstudio.standards.standard] <-2> Adding refrigeration_system_lineup from ashrae_90_1_2010.ref_lnup.json\n[openstudio.standards.standard] <-2> Adding construction_sets from ashrae_90_1_2010.construction_sets.json\n[openstudio.standards.standard] <-2> Adding water_heaters from ashrae_90_1_2010.water_heaters.json\n[openstudio.standards.standard] <-2> Adding refrigeration_compressors from ashrae_90_1_2010.refrigeration_compressors.json\n[openstudio.standards.standard] <-2> Adding elevators from ashrae_90_1_2010.elevators.json\n[openstudio.standards.standard] <-2> Adding refrigeration_condenser from ashrae_90_1_2010.refrigeration_condenser.json\n[openstudio.standards.standard] <-2> Adding unitary_acs from ashrae_90_1_2010.unitary_acs.json\n[openstudio.standards.standard] <-2> Adding water_source_heat_pumps from ashrae_90_1_2010.water_source_heat_pumps.json\n[openstudio.standards.standard] <-2> Adding refrigerated_cases from ashrae_90_1_2010.ref_cases.json\n[openstudio.standards.standard] <-2> Adding boilers from ashrae_90_1_2010.boilers.json\n[openstudio.standards.standard] <-2> Adding construction_properties from ashrae_90_1_2010.construction_properties.json\n[openstudio.standards.standard] <-2> Adding chillers from ashrae_90_1_2010.chillers.json\n[openstudio.standards.standard] <-2> Adding refrigeration_system from ashrae_90_1_2010.refrigeration_system.json\n[openstudio.standards.standard] <-2> Adding heat_rejection from ashrae_90_1_2010.heat_rejection.json\n[openstudio.model.PlanarSurface] <-2> Before setVertices have 11 fields.\n[openstudio.model.PlanarSurface] <-2> After clearExtensibleGroups in setVertices have 11 fields.\n[openstudio.model.PlanarSurface] <-2> After setVertices have 23 fields.  Size of vertices is 4.\n[openstudio.model.PlanarSurface] <-2> Before setVertices have 11 fields.\n[openstudio.model.PlanarSurface] <-2> After clearExtensibleGroups in setVertices have 11 fields.\n[openstudio.model.PlanarSurface] <-2> After setVertices have 23 fields.  Size of vertices is 4.\n[openstudio.model.PlanarSurface] <-2> Before setVertices have 11 fields.\n[openstudio.model.PlanarSurface] <-2> After clearExtensibleGroups in setVertices have 11 fields.\n[openstudio.model.PlanarSurface] <-2> After setVertices have 23 fields.  Size of vertices is 4.\n[openstudio.model.PlanarSurface] <-2> Before setVertices have 11 fields.\n[openstudio.model.PlanarSurface] <-2> After clearExtensibleGroups in setVertices have 11 fields.\n[openstudio.model.PlanarSurface] <-2> After setVertices have 23 fields.  Size of vertices is 4.\n[openstudio.model.PlanarSurface] <-2> Before setVertices have 11 fields.\n[openstudio.model.PlanarSurface] <-2> After clearExtensibleGroups in setVertices have 11 fields.\n[openstudio.model.PlanarSurface] <-2> After setVertices have 23 fields.  Size of vertices is 4.\n[openstudio.model.PlanarSurface] <-2> Before setVertices have 11 fields.\n[openstudio.model.PlanarSurface] <-2> After clearExtensibleGroups in setVertices have 11 fields.\n[openstudio.model.PlanarSurface] <-2> After setVertices have 23 fields.  Size of vertices is 4.\n[openstudio.model.PlanarSurface] <-2> Before setVertices have 23 fields.\n[openstudio.model.PlanarSurface] <-2> After clearExtensibleGroups in setVertices have 11 fields.\n[openstudio.model.PlanarSurface] <-2> After setVertices have 23 fields.  Size of vertices is 4.\n[openstudio.model.PlanarSurface] <-2> Before setVertices have 23 fields.\n[openstudio.model.PlanarSurface] <-2> After clearExtensibleGroups in setVertices have 11 fields.\n[openstudio.model.PlanarSurface] <-2> After setVertices have 23 fields.  Size of vertices is 4.\n[openstudio.model.PlanarSurface] <-2> Before setVertices have 23 fields.\n[openstudio.model.PlanarSurface] <-2> After clearExtensibleGroups in setVertices have 11 fields.\n[openstudio.model.PlanarSurface] <-2> After setVertices have 23 fields.  Size of vertices is 4.\n[openstudio.model.PlanarSurface] <-2> Before setVertices have 23 fields.\n[openstudio.model.PlanarSurface] <-2> After clearExtensibleGroups in setVertices have 11 fields.\n[openstudio.model.PlanarSurface] <-2> After setVertices have 23 fields.  Size of vertices is 4.\n[openstudio.model.PlanarSurface] <-2> Before setVertices have 23 fields.\n[openstudio.model.PlanarSurface] <-2> After clearExtensibleGroups in setVertices have 11 fields.\n[openstudio.model.PlanarSurface] <-2> After setVertices have 23 fields.  Size of vertices is 4.\n[openstudio.model.PlanarSurface] <-2> Before setVertices have 23 fields.\n[openstudio.model.PlanarSurface] <-2> After clearExtensibleGroups in setVertices have 11 fields.\n[openstudio.model.PlanarSurface] <-2> After setVertices have 23 fields.  Size of vertices is 4.\n[openstudio.model.PlanarSurface] <-2> Before setVertices have 11 fields.\n[openstudio.model.PlanarSurface] <-2> After clearExtensibleGroups in setVertices have 11 fields.\n[openstudio.model.PlanarSurface] <-2> After setVertices have 23 fields.  Size of vertices is 4.\n[openstudio.model.PlanarSurface] <-2> Before setVertices have 11 fields.\n[openstudio.model.PlanarSurface] <-2> After clearExtensibleGroups in setVertices have 11 fields.\n[openstudio.model.PlanarSurface] <-2> After setVertices have 23 fields.  Size of vertices is 4.\n[openstudio.model.PlanarSurface] <-2> Before setVertices have 11 fields.\n[openstudio.model.PlanarSurface] <-2> After clearExtensibleGroups in setVertices have 11 fields.\n[openstudio.model.PlanarSurface] <-2> After setVertices have 23 fields.  Size of vertices is 4.\n[openstudio.model.PlanarSurface] <-2> Before setVertices have 11 fields.\n[openstudio.model.PlanarSurface] <-2> After clearExtensibleGroups in setVertices have 11 fields.\n[openstudio.model.PlanarSurface] <-2> After setVertices have 23 fields.  Size of vertices is 4.\n[openstudio.model.PlanarSurface] <-2> Before setVertices have 11 fields.\n[openstudio.model.PlanarSurface] <-2> After clearExtensibleGroups in setVertices have 11 fields.\n[openstudio.model.PlanarSurface] <-2> After setVertices have 23 fields.  Size of vertices is 4.\n[openstudio.model.PlanarSurface] <-2> Before setVertices have 11 fields.\n[openstudio.model.PlanarSurface] <-2> After clearExtensibleGroups in setVertices have 11 fields.\n[openstudio.model.PlanarSurface] <-2> After setVertices have 23 fields.  Size of vertices is 4.\n[openstudio.model.PlanarSurface] <-2> Before setVertices have 23 fields.\n[openstudio.model.PlanarSurface] <-2> After clearExtensibleGroups in setVertices have 11 fields.\n[openstudio.model.PlanarSurface] <-2> After setVertices have 23 fields.  Size of vertices is 4.\n[openstudio.model.PlanarSurface] <-2> Before setVertices have 23 fields.\n[openstudio.model.PlanarSurface] <-2> After clearExtensibleGroups in setVertices have 11 fields.\n[openstudio.model.PlanarSurface] <-2> After setVertices have 23 fields.  Size of vertices is 4.\n[openstudio.model.PlanarSurface] <-2> Before setVertices have 23 fields.\n[openstudio.model.PlanarSurface] <-2> After clearExtensibleGroups in setVertices have 11 fields.\n[openstudio.model.PlanarSurface] <-2> After setVertices have 23 fields.  Size of vertices is 4.\n[openstudio.model.PlanarSurface] <-2> Before setVertices have 23 fields.\n[openstudio.model.PlanarSurface] <-2> After clearExtensibleGroups in setVertices have 11 fields.\n[openstudio.model.PlanarSurface] <-2> After setVertices have 23 fields.  Size of vertices is 4.\n[openstudio.model.PlanarSurface] <-2> Before setVertices have 23 fields.\n[openstudio.model.PlanarSurface] <-2> After clearExtensibleGroups in setVertices have 11 fields.\n[openstudio.model.PlanarSurface] <-2> After setVertices have 23 fields.  Size of vertices is 4.\n[openstudio.model.PlanarSurface] <-2> Before setVertices have 23 fields.\n[openstudio.model.PlanarSurface] <-2> After clearExtensibleGroups in setVertices have 11 fields.\n[openstudio.model.PlanarSurface] <-2> After setVertices have 23 fields.  Size of vertices is 4.\n[openstudio.model.PlanarSurface] <-2> Before setVertices have 11 fields.\n[openstudio.model.PlanarSurface] <-2> After clearExtensibleGroups in setVertices have 11 fields.\n[openstudio.model.PlanarSurface] <-2> After setVertices have 23 fields.  Size of vertices is 4.\n[openstudio.model.PlanarSurface] <-2> Before setVertices have 11 fields.\n[openstudio.model.PlanarSurface] <-2> After clearExtensibleGroups in setVertices have 11 fields.\n[openstudio.model.PlanarSurface] <-2> After setVertices have 23 fields.  Size of vertices is 4.\n[openstudio.model.PlanarSurface] <-2> Before setVertices have 11 fields.\n[openstudio.model.PlanarSurface] <-2> After clearExtensibleGroups in setVertices have 11 fields.\n[openstudio.model.PlanarSurface] <-2> After setVertices have 23 fields.  Size of vertices is 4.\n[openstudio.model.PlanarSurface] <-2> Before setVertices have 11 fields.\n[openstudio.model.PlanarSurface] <-2> After clearExtensibleGroups in setVertices have 11 fields.\n[openstudio.model.PlanarSurface] <-2> After setVertices have 23 fields.  Size of vertices is 4.\n[openstudio.model.PlanarSurface] <-2> Before setVertices have 11 fields.\n[openstudio.model.PlanarSurface] <-2> After clearExtensibleGroups in setVertices have 11 fields.\n[openstudio.model.PlanarSurface] <-2> After setVertices have 23 fields.  Size of vertices is 4.\n[openstudio.model.PlanarSurface] <-2> Before setVertices have 11 fields.\n[openstudio.model.PlanarSurface] <-2> After clearExtensibleGroups in setVertices have 11 fields.\n[openstudio.model.PlanarSurface] <-2> After setVertices have 23 fields.  Size of vertices is 4.\n[openstudio.model.PlanarSurface] <-2> Before setVertices have 23 fields.\n[openstudio.model.PlanarSurface] <-2> After clearExtensibleGroups in setVertices have 11 fields.\n[openstudio.model.PlanarSurface] <-2> After setVertices have 23 fields.  Size of vertices is 4.\n[openstudio.model.PlanarSurface] <-2> Before setVertices have 23 fields.\n[openstudio.model.PlanarSurface] <-2> After clearExtensibleGroups in setVertices have 11 fields.\n[openstudio.model.PlanarSurface] <-2> After setVertices have 23 fields.  Size of vertices is 4.\n[openstudio.model.PlanarSurface] <-2> Before setVertices have 23 fields.\n[openstudio.model.PlanarSurface] <-2> After clearExtensibleGroups in setVertices have 11 fields.\n[openstudio.model.PlanarSurface] <-2> After setVertices have 23 fields.  Size of vertices is 4.\n[openstudio.model.PlanarSurface] <-2> Before setVertices have 23 fields.\n[openstudio.model.PlanarSurface] <-2> After clearExtensibleGroups in setVertices have 11 fields.\n[openstudio.model.PlanarSurface] <-2> After setVertices have 23 fields.  Size of vertices is 4.\n[openstudio.model.PlanarSurface] <-2> Before setVertices have 23 fields.\n[openstudio.model.PlanarSurface] <-2> After clearExtensibleGroups in setVertices have 11 fields.\n[openstudio.model.PlanarSurface] <-2> After setVertices have 23 fields.  Size of vertices is 4.\n[openstudio.model.PlanarSurface] <-2> Before setVertices have 23 fields.\n[openstudio.model.PlanarSurface] <-2> After clearExtensibleGroups in setVertices have 11 fields.\n[openstudio.model.PlanarSurface] <-2> After setVertices have 23 fields.  Size of vertices is 4.\n[openstudio.model.PlanarSurface] <-2> Before setVertices have 11 fields.\n[openstudio.model.PlanarSurface] <-2> After clearExtensibleGroups in setVertices have 11 fields.\n[openstudio.model.PlanarSurface] <-2> After setVertices have 23 fields.  Size of vertices is 4.\n[openstudio.model.PlanarSurface] <-2> Before setVertices have 11 fields.\n[openstudio.model.PlanarSurface] <-2> After clearExtensibleGroups in setVertices have 11 fields.\n[openstudio.model.PlanarSurface] <-2> After setVertices have 23 fields.  Size of vertices is 4.\n[openstudio.model.PlanarSurface] <-2> Before setVertices have 11 fields.\n[openstudio.model.PlanarSurface] <-2> After clearExtensibleGroups in setVertices have 11 fields.\n[openstudio.model.PlanarSurface] <-2> After setVertices have 23 fields.  Size of vertices is 4.\n[openstudio.model.PlanarSurface] <-2> Before setVertices have 11 fields.\n[openstudio.model.PlanarSurface] <-2> After clearExtensibleGroups in setVertices have 11 fields.\n[openstudio.model.PlanarSurface] <-2> After setVertices have 23 fields.  Size of vertices is 4.\n[openstudio.model.PlanarSurface] <-2> Before setVertices have 11 fields.\n[openstudio.model.PlanarSurface] <-2> After clearExtensibleGroups in setVertices have 11 fields.\n[openstudio.model.PlanarSurface] <-2> After setVertices have 23 fields.  Size of vertices is 4.\n[openstudio.model.PlanarSurface] <-2> Before setVertices have 11 fields.\n[openstudio.model.PlanarSurface] <-2> After clearExtensibleGroups in setVertices have 11 fields.\n[openstudio.model.PlanarSurface] <-2> After setVertices have 23 fields.  Size of vertices is 4.\n[openstudio.model.PlanarSurface] <-2> Before setVertices have 11 fields.\n[openstudio.model.PlanarSurface] <-2> After clearExtensibleGroups in setVertices have 11 fields.\n[openstudio.model.PlanarSurface] <-2> After setVertices have 23 fields.  Size of vertices is 4.\n[openstudio.model.PlanarSurface] <-2> Before setVertices have 11 fields.\n[openstudio.model.PlanarSurface] <-2> After clearExtensibleGroups in setVertices have 11 fields.\n[openstudio.model.PlanarSurface] <-2> After setVertices have 23 fields.  Size of vertices is 4.\n[openstudio.model.PlanarSurface] <-2> Before setVertices have 11 fields.\n[openstudio.model.PlanarSurface] <-2> After clearExtensibleGroups in setVertices have 11 fields.\n[openstudio.model.PlanarSurface] <-2> After setVertices have 23 fields.  Size of vertices is 4.\n[openstudio.model.PlanarSurface] <-2> Before setVertices have 11 fields.\n[openstudio.model.PlanarSurface] <-2> After clearExtensibleGroups in setVertices have 11 fields.\n[openstudio.model.PlanarSurface] <-2> After setVertices have 23 fields.  Size of vertices is 4.\n[openstudio.model.PlanarSurface] <-2> Before setVertices have 11 fields.\n[openstudio.model.PlanarSurface] <-2> After clearExtensibleGroups in setVertices have 11 fields.\n[openstudio.model.PlanarSurface] <-2> After setVertices have 23 fields.  Size of vertices is 4.\n[openstudio.model.PlanarSurface] <-2> Before setVertices have 11 fields.\n[openstudio.model.PlanarSurface] <-2> After clearExtensibleGroups in setVertices have 11 fields.\n[openstudio.model.PlanarSurface] <-2> After setVertices have 23 fields.  Size of vertices is 4.\n",
            "step_errors" : [],
            "step_files" : [],
            "step_final_condition" : "The building finished with 3 spaces.",
            "step_info" : [
               "0.0 value for minimum perimeter multiplier will be replaced with smart default for MediumOffice of 1.0.",
               "Removed 103 non resource objects from the model.",
               "Creating Space Types for MediumOffice.",
               "Making bar with length of 123 ft and width of 35 ft",
               "Intersecting and matching surfaces in model, this will create additional geometry.",
               "Created bar envelope with floor area of 21,585 ft^2.",
               "Set Building Rotation to 87.6868988023605. Rotation altered after geometry generation is completed, as a result party wall orientation and aspect ratio may not reflect input values."
            ],
            "step_initial_condition" : "The building started with 4 spaces.",
            "step_result" : "Success",
            "step_values" : [
               {
                  "name" : "bldg_type_a",
                  "value" : "MediumOffice"
               },
               {
                  "name" : "bldg_type_b",
                  "value" : "MediumOffice"
               },
               {
                  "name" : "bldg_type_b_fract_bldg_area",
                  "value" : 0
               },
               {
                  "name" : "bldg_type_c",
                  "value" : "SmallOffice"
               },
               {
                  "name" : "bldg_type_c_fract_bldg_area",
                  "value" : 0
               },
               {
                  "name" : "bldg_type_d",
                  "value" : "SmallOffice"
               },
               {
                  "name" : "bldg_type_d_fract_bldg_area",
                  "value" : 0
               },
               {
                  "name" : "total_bldg_floor_area",
                  "value" : 21585.101586743258
               },
               {
                  "name" : "single_floor_area",
                  "value" : 0
               },
               {
                  "name" : "floor_height",
                  "value" : 12
               },
               {
                  "name" : "custom_height_bar",
                  "value" : true
               },
               {
                  "name" : "num_stories_above_grade",
                  "value" : 5
               },
               {
                  "name" : "num_stories_below_grade",
                  "value" : 0
               },
               {
                  "name" : "building_rotation",
                  "value" : 87.686898802360517
               },
               {
                  "name" : "template",
                  "value" : "90.1-2010"
               },
               {
                  "name" : "ns_to_ew_ratio",
                  "value" : 3.496690300088376
               },
               {
                  "name" : "perim_mult",
                  "value" : 0
               },
               {
                  "name" : "bar_sep_dist_mult",
                  "value" : 10
               },
               {
                  "name" : "wwr",
                  "value" : 0.27143587756995113
               },
               {
                  "name" : "party_wall_fraction",
                  "value" : 0
               },
               {
                  "name" : "party_wall_stories_north",
                  "value" : 0
               },
               {
                  "name" : "party_wall_stories_south",
                  "value" : 0
               },
               {
                  "name" : "party_wall_stories_east",
                  "value" : 0
               },
               {
                  "name" : "party_wall_stories_west",
                  "value" : 0
               },
               {
                  "name" : "bottom_story_ground_exposed_floor",
                  "value" : true
               },
               {
                  "name" : "top_story_exterior_exposed_roof",
                  "value" : true
               },
               {
                  "name" : "story_multiplier",
                  "value" : "Basements Ground Mid Top"
               },
               {
                  "name" : "make_mid_story_surfaces_adiabatic",
                  "value" : false
               },
               {
                  "name" : "bar_division_method",
                  "value" : "Multiple Space Types - Individual Stories Sliced"
               },
               {
                  "name" : "double_loaded_corridor",
                  "value" : "Primary Space Type"
               },
               {
                  "name" : "space_type_sort_logic",
                  "value" : "Building Type > Size"
               },
               {
                  "name" : "use_upstream_args",
                  "value" : true
               },
               {
                  "name" : "wall_area_ip",
                  "units" : "ft^2",
                  "value" : 18959.971729647448
               },
               {
                  "name" : "ns_wall_area_ip",
                  "units" : "ft^2",
                  "value" : 14743.543542615122
               },
               {
                  "name" : "ew_wall_area_ip",
                  "units" : "ft^2",
                  "value" : 4216.4281870323248
               },
               {
                  "name" : "floor_area_to_perim_ratio",
                  "value" : 4.1640182110725368
               },
               {
                  "name" : "bar_width",
                  "units" : "ft",
                  "value" : 35.136901558602602
               }
            ],
            "step_warnings" : [
               "The model has one or more site shading surafces. New geometry may not be positioned where expected, it will be centered over the center of the original geometry.",
               "Not modeling core and perimeter zones for some portion of the model.",
               "Not modeling core and perimeter zones for some portion of the model.",
               "Not modeling core and perimeter zones for some portion of the model."
            ]
         }
      },
      {
         "arguments" : {
            "climate_zone" : "Lookup From Stat File",
            "use_upstream_args" : true,
            "weather_file_name" : "USA_VA_Arlington-Ronald.Reagan.Washington.Natl.AP.724050_TMY3.epw"
         },
         "description" : "Change the building location",
         "measure_dir_name" : "change_building_location",
         "name" : "change_building_location",
         "result" : {
            "completed_at" : "20200426T063028Z",
            "measure_class_name" : "ChangeBuildingLocation",
            "measure_display_name" : "ChangeBuildingLocation",
            "measure_name" : "change_building_location",
            "measure_taxonomy" : "Whole Building.Space Types",
            "measure_type" : "ModelMeasure",
            "measure_uid" : "d4db4971-f5ba-11e3-a3ac-0800200c9a66",
            "measure_version_id" : "3e7ff831-162f-4d73-a530-d040e6318e75",
            "measure_version_modified" : "20190826T205142Z",
            "measure_xml_checksum" : "057E8D9D",
            "started_at" : "20200426T063028Z",
            "stderr" : "",
            "stdout" : "[openstudio.setFileExtension] <0> Path p, '/mnt/openstudio/analysis_179f9bb9-dd28-4d2c-84f7-5bdfd8f4d421/weather/USA_VA_Arlington-Ronald.Reagan.Washington.Natl.AP.724050_TMY3.ddy', has an unexpected file extension. Was expecting 'idf'.\n[openstudio.model.YearDescription] <1> 'UseWeatherFile' is not yet a supported option for YearDescription\n[openstudio.model.YearDescription] <1> 'UseWeatherFile' is not yet a supported option for YearDescription\n",
            "step_errors" : [],
            "step_files" : [],
            "step_final_condition" : "The final weather file is Washington Dc Reagan Ap and the model has 3 design day objects.",
            "step_info" : [
               "city is Washington Dc Reagan Ap. State is VA",
               "mean dry bulb is 14.050000000000002",
               "Adding object Washington Dc Reagan Ap Ann Clg .4% Condns DB=>MWB",
               "Adding object Washington Dc Reagan Ap Ann Htg 99.6% Condns DB",
               "Adding object Washington Dc Reagan Ap Ann Clg .4% Condns WB=>MDB",
               "Setting Climate Zone to 4A"
            ],
            "step_initial_condition" : "The initial weather file is Washington Dc Reagan Ap and the model has 2 design day objects",
            "step_result" : "Success",
            "step_values" : [
               {
                  "name" : "weather_file_name",
                  "value" : "USA_VA_Arlington-Ronald.Reagan.Washington.Natl.AP.724050_TMY3.epw"
               },
               {
                  "name" : "climate_zone",
                  "value" : "Lookup From Stat File"
               },
               {
                  "name" : "use_upstream_args",
                  "value" : true
               }
            ],
            "step_warnings" : []
         }
      },
      {
         "arguments" : {
            "add_constructions" : true,
            "add_elevators" : true,
            "add_exhaust" : true,
            "add_exterior_lights" : true,
            "add_hvac" : true,
            "add_internal_mass" : true,
            "add_refrigeration" : false,
            "add_space_type_loads" : true,
            "add_swh" : true,
            "add_thermostat" : true,
            "clg_src" : "Electricity",
            "enable_dst" : true,
            "exterior_lighting_zone" : "3 - All Other Areas",
            "htg_src" : "NaturalGas",
            "hvac_delivery_type" : "Forced Air",
            "kitchen_makeup" : "Adjacent",
            "modify_wkdy_op_hrs" : true,
            "modify_wknd_op_hrs" : false,
            "onsite_parking_fraction" : 1,
            "remove_objects" : true,
            "swh_src" : "NaturalGas",
            "system_type" : "Inferred",
            "template" : "DOE Ref Pre-1980",
            "unmet_hours_tolerance" : 1,
            "use_upstream_args" : true,
            "wkdy_op_hrs_duration" : 10.794572252671545,
            "wkdy_op_hrs_start_time" : 6.0873422028652078,
            "wknd_op_hrs_duration" : 8,
            "wknd_op_hrs_start_time" : 8
         },
         "description" : "Takes a model with space and stub space types, and assigns constructions, schedules, internal loads, hvac, and other loads such as exterior lights and service water heating.",
         "measure_dir_name" : "create_typical_doe_building_from_model",
         "name" : "create_typical_doe_building_from_model",
         "result" : {
            "completed_at" : "20200426T063046Z",
            "measure_class_name" : "CreateTypicalDOEBuildingFromModel",
            "measure_display_name" : "Create Typical DOE Building from Model",
            "measure_name" : "create_typical_doe_building_from_model",
            "measure_taxonomy" : "Whole Building.Space Types",
            "measure_type" : "ModelMeasure",
            "measure_uid" : "b2c80210-33b3-4dfd-8267-535efd81f552",
            "measure_version_id" : "ee2ac58a-1383-45b3-bfcd-2d7a00068440",
            "measure_version_modified" : "20200424T162233Z",
            "measure_xml_checksum" : "99E7000D",
            "started_at" : "20200426T063028Z",
            "stderr" : "",
[...]
                  "name" : "natural_gas_humidification_ip",
                  "units" : "MBtu",
                  "value" : 0
               },
               {
                  "name" : "natural_gas_heat_recovery_ip",
                  "units" : "MBtu",
                  "value" : 0
               },
               {
                  "name" : "natural_gas_water_systems_ip",
                  "units" : "MBtu",
                  "value" : 46.750728767119853
               },
               {
                  "name" : "natural_gas_refrigeration_ip",
                  "units" : "MBtu",
                  "value" : 0
               },
               {
                  "name" : "natural_gas_generators_ip",
                  "units" : "MBtu",
                  "value" : 0
               },
               {
                  "name" : "natural_gas_ip",
                  "units" : "MBtu",
                  "value" : 191.83686962398949
               },
               {
                  "name" : "additional_fuel_heating_ip",
                  "units" : "MBtu",
                  "value" : 0
               },
               {
                  "name" : "additional_fuel_cooling_ip",
                  "units" : "MBtu",
                  "value" : 0
               },
               {
                  "name" : "additional_fuel_interior_lighting_ip",
                  "units" : "MBtu",
                  "value" : 0
               },
               {
                  "name" : "additional_fuel_exterior_lighting_ip",
                  "units" : "MBtu",
                  "value" : 0
               },
               {
                  "name" : "additional_fuel_interior_equipment_ip",
                  "units" : "MBtu",
                  "value" : 0
               },
               {
                  "name" : "additional_fuel_exterior_equipment_ip",
                  "units" : "MBtu",
                  "value" : 0
               },
               {
                  "name" : "additional_fuel_fans_ip",
                  "units" : "MBtu",
                  "value" : 0
               },
               {
                  "name" : "additional_fuel_pumps_ip",
                  "units" : "MBtu",
                  "value" : 0
               },
               {
                  "name" : "additional_fuel_heat_rejection_ip",
                  "units" : "MBtu",
                  "value" : 0
               },
               {
                  "name" : "additional_fuel_humidification_ip",
                  "units" : "MBtu",
                  "value" : 0
               },
               {
                  "name" : "additional_fuel_heat_recovery_ip",
                  "units" : "MBtu",
                  "value" : 0
               },
               {
                  "name" : "additional_fuel_water_systems_ip",
                  "units" : "MBtu",
                  "value" : 0
               },
               {
                  "name" : "additional_fuel_refrigeration_ip",
                  "units" : "MBtu",
                  "value" : 0
               },
               {
                  "name" : "additional_fuel_generators_ip",
                  "units" : "MBtu",
                  "value" : 0
               },
               {
                  "name" : "additional_fuel_ip",
                  "units" : "MBtu",
                  "value" : 0
               },
               {
                  "name" : "district_cooling_heating_ip",
                  "units" : "MBtu",
                  "value" : 0
               },
               {
                  "name" : "district_cooling_cooling_ip",
                  "units" : "MBtu",
                  "value" : 0
               },
               {
                  "name" : "district_cooling_interior_lighting_ip",
                  "units" : "MBtu",
                  "value" : 0
               },
               {
                  "name" : "district_cooling_exterior_lighting_ip",
                  "units" : "MBtu",
                  "value" : 0
               },
               {
                  "name" : "district_cooling_interior_equipment_ip",
                  "units" : "MBtu",
                  "value" : 0
               },
               {
                  "name" : "district_cooling_exterior_equipment_ip",
                  "units" : "MBtu",
                  "value" : 0
               },
               {
                  "name" : "district_cooling_fans_ip",
                  "units" : "MBtu",
                  "value" : 0
               },
               {
                  "name" : "district_cooling_pumps_ip",
                  "units" : "MBtu",
                  "value" : 0
               },
               {
                  "name" : "district_cooling_heat_rejection_ip",
                  "units" : "MBtu",
                  "value" : 0
               },
               {
                  "name" : "district_cooling_humidification_ip",
                  "units" : "MBtu",
                  "value" : 0
               },
               {
                  "name" : "district_cooling_heat_recovery_ip",
                  "units" : "MBtu",
                  "value" : 0
               },
               {
                  "name" : "district_cooling_water_systems_ip",
                  "units" : "MBtu",
                  "value" : 0
               },
               {
                  "name" : "district_cooling_refrigeration_ip",
                  "units" : "MBtu",
                  "value" : 0
               },
               {
                  "name" : "district_cooling_generators_ip",
                  "units" : "MBtu",
                  "value" : 0
               },
               {
                  "name" : "district_cooling_ip",
                  "units" : "MBtu",
                  "value" : 0
               },
               {
                  "name" : "district_heating_heating_ip",
                  "units" : "MBtu",
                  "value" : 0
               },
               {
                  "name" : "district_heating_cooling_ip",
                  "units" : "MBtu",
                  "value" : 0
               },
               {
                  "name" : "district_heating_interior_lighting_ip",
                  "units" : "MBtu",
                  "value" : 0
               },
               {
                  "name" : "district_heating_exterior_lighting_ip",
                  "units" : "MBtu",
                  "value" : 0
               },
               {
                  "name" : "district_heating_interior_equipment_ip",
                  "units" : "MBtu",
                  "value" : 0
               },
               {
                  "name" : "district_heating_exterior_equipment_ip",
                  "units" : "MBtu",
                  "value" : 0
               },
               {
                  "name" : "district_heating_fans_ip",
                  "units" : "MBtu",
                  "value" : 0
               },
               {
                  "name" : "district_heating_pumps_ip",
                  "units" : "MBtu",
                  "value" : 0
               },
               {
                  "name" : "district_heating_heat_rejection_ip",
                  "units" : "MBtu",
                  "value" : 0
               },
               {
                  "name" : "district_heating_humidification_ip",
                  "units" : "MBtu",
                  "value" : 0
               },
               {
                  "name" : "district_heating_heat_recovery_ip",
                  "units" : "MBtu",
                  "value" : 0
               },
               {
                  "name" : "district_heating_water_systems_ip",
                  "units" : "MBtu",
                  "value" : 0
               },
               {
                  "name" : "district_heating_refrigeration_ip",
                  "units" : "MBtu",
                  "value" : 0
               },
               {
                  "name" : "district_heating_generators_ip",
                  "units" : "MBtu",
                  "value" : 0
               },
               {
                  "name" : "district_heating_ip",
                  "units" : "MBtu",
                  "value" : 0
               },
               {
                  "name" : "water_heating_ip",
                  "units" : "MBtu",
                  "value" : 0
               },
               {
                  "name" : "water_cooling_ip",
                  "units" : "MBtu",
                  "value" : 0
               },
               {
                  "name" : "water_interior_lighting_ip",
                  "units" : "MBtu",
                  "value" : 0
               },
               {
                  "name" : "water_exterior_lighting_ip",
                  "units" : "MBtu",
                  "value" : 0
               },
               {
                  "name" : "water_interior_equipment_ip",
                  "units" : "MBtu",
                  "value" : 0
               },
               {
                  "name" : "water_exterior_equipment_ip",
                  "units" : "MBtu",
                  "value" : 0
               },
               {
                  "name" : "water_fans_ip",
                  "units" : "MBtu",
                  "value" : 0
               },
               {
                  "name" : "water_pumps_ip",
                  "units" : "MBtu",
                  "value" : 0
               },
               {
                  "name" : "water_heat_rejection_ip",
                  "units" : "MBtu",
                  "value" : 0
               },
               {
                  "name" : "water_humidification_ip",
                  "units" : "MBtu",
                  "value" : 0
               },
               {
                  "name" : "water_heat_recovery_ip",
                  "units" : "MBtu",
                  "value" : 0
               },
               {
                  "name" : "water_water_systems_ip",
                  "units" : "MBtu",
                  "value" : 0
               },
               {
                  "name" : "water_refrigeration_ip",
                  "units" : "MBtu",
                  "value" : 0
               },
               {
                  "name" : "water_generators_ip",
                  "units" : "MBtu",
                  "value" : 0
               },
               {
                  "name" : "water_ip",
                  "units" : "MBtu",
                  "value" : 0
               },
               {
                  "name" : "typical_iead_roof_r_20_83",
                  "units" : "ft^2",
                  "value" : 4317.020317348668
               },
               {
                  "name" : "typical_insulated_exterior_mass_wall_r_9_62",
                  "units" : "ft^2",
                  "value" : 13813.555164509129
               },
               {
                  "name" : "u_0_52_shgc_0_40_dbl_ref_d_clr_6_mm_13_mm_air",
                  "units" : "ft^2",
                  "value" : 5146.4165651383191
               },
               {
                  "name" : "gross_window_wall_ratio",
                  "units" : "%",
                  "value" : 27.140000000000001
               },
               {
                  "name" : "gross_window_wall_ratio_conditioned",
                  "units" : "%",
                  "value" : 27.140000000000001
               },
               {
                  "name" : "skylight_roof_ratio",
                  "units" : "%",
                  "value" : 0
               },
               {
                  "name" : "space_type_office_whole_building_md_office_90_1_2010",
                  "units" : "ft^2",
                  "value" : 21585.101586743342
               },
               {
                  "name" : "exterior_lighting_total_power",
                  "units" : "W",
                  "value" : 4374.6599999999999
               },
               {
                  "name" : "exterior_lighting_total_consumption",
                  "units" : "kWh",
                  "value" : 359138.88888888888
               },
               {
                  "name" : "office_whole_building_md_office_90_1_2010_service_water_use_0_34_gpm_at_140_f",
                  "units" : "gal/min",
                  "value" : 0.34212233066555819
               },
               {
                  "name" : "inflation_approach",
                  "value" : "Constant Dollar"
               },
               {
                  "name" : "analysis_length",
                  "units" : "yrs",
                  "value" : 25
               },
               {
                  "name" : "annual_peak_electric_demand",
                  "units" : "kW",
                  "value" : 121.28126
               },
               {
                  "name" : "first_year_capital_cost",
                  "units" : "$",
                  "value" : 0
               },
               {
                  "name" : "annual_utility_cost",
                  "units" : "$",
                  "value" : 0
               },
               {
                  "name" : "total_lifecycle_cost",
                  "units" : "$",
                  "value" : 0
               }
            ],
            "step_warnings" : []
         }
      },
      {
         "arguments" : {},
         "description" : "Timeseries data for DC metamodels",
         "measure_dir_name" : "dc_timeseries_reports",
         "name" : "dc_timeseries_reports",
         "result" : {
            "completed_at" : "20200426T063130Z",
            "measure_class_name" : "DcTimeseriesReports",
            "measure_display_name" : "DC Timeseries Reports",
            "measure_name" : "dc_timeseries_reports",
            "measure_taxonomy" : "Reporting.QAQC",
            "measure_type" : "ReportingMeasure",
            "measure_uid" : "2c8fb9a0-a618-4439-b4ca-3751f32bfd3e",
            "measure_version_id" : "40bc432a-a44a-4647-9f39-1c8fe60f01fc",
            "measure_version_modified" : "20200415T200842Z",
            "measure_xml_checksum" : "15BF4E57",
            "started_at" : "20200426T063129Z",
            "stderr" : "",
            "stdout" : "[openstudio.energyplus.SqlFile] <-2> Dictionary Built\n[openstudio.energyplus.SqlFile] <-2> Making time series for envPeriod = 'RUN PERIOD 1', reportingFrequency = 'Hourly', timeSeriesName = 'Cooling:Electricity', keyValue = ''\n[openstudio.energyplus.SqlFile] <-2> RUN PERIOD 1\n[openstudio.energyplus.SqlFile] <-2> Cooling:Electricity\n[openstudio.energyplus.SqlFile] <-2> SQL Query:\nSELECT dt.VariableValue, Time.Year, Time.Month, Time.Day, Time.Interval FROM ReportMeterData dt INNER JOIN Time ON Time.timeIndex = dt.TimeIndex WHERE  dt.ReportMeterDataDictionaryIndex=914 AND Time.EnvironmentPeriodIndex = 4Return Code:\n100\n[openstudio.energyplus.SqlFile] <-2> Time series found\n[openstudio.energyplus.SqlFile] <-2> Making time series for envPeriod = 'RUN PERIOD 1', reportingFrequency = 'Hourly', timeSeriesName = 'Site Outdoor Air Drybulb Temperature', keyValue = 'Environment'\n[openstudio.energyplus.SqlFile] <-2> RUN PERIOD 1\n[openstudio.energyplus.SqlFile] <-2> Site Outdoor Air Drybulb Temperature\n[openstudio.energyplus.SqlFile] <-2> SQL Query:\nSELECT dt.VariableValue, Time.Year, Time.Month, Time.Day, Time.Interval FROM ReportVariableData dt INNER JOIN Time ON Time.timeIndex = dt.TimeIndex WHERE  dt.ReportVariableDataDictionaryIndex=8 AND Time.EnvironmentPeriodIndex = 4Return Code:\n100\n[openstudio.energyplus.SqlFile] <-2> Time series found\n[openstudio.energyplus.SqlFile] <-2> Making time series for envPeriod = 'RUN PERIOD 1', reportingFrequency = 'Hourly', timeSeriesName = 'Site Outdoor Air Relative Humidity', keyValue = 'Environment'\n[openstudio.energyplus.SqlFile] <-2> RUN PERIOD 1\n[openstudio.energyplus.SqlFile] <-2> Site Outdoor Air Relative Humidity\n[openstudio.energyplus.SqlFile] <-2> SQL Query:\nSELECT dt.VariableValue, Time.Year, Time.Month, Time.Day, Time.Interval FROM ReportVariableData dt INNER JOIN Time ON Time.timeIndex = dt.TimeIndex WHERE  dt.ReportVariableDataDictionaryIndex=10 AND Time.EnvironmentPeriodIndex = 4Return Code:\n100\n[openstudio.energyplus.SqlFile] <-2> Time series found\n[openstudio.energyplus.SqlFile] <-2> Making time series for envPeriod = 'RUN PERIOD 1', reportingFrequency = 'Hourly', timeSeriesName = 'Heating:Electricity', keyValue = ''\n[openstudio.energyplus.SqlFile] <-2> RUN PERIOD 1\n[openstudio.energyplus.SqlFile] <-2> Heating:Electricity\n[openstudio.energyplus.SqlFile] <-2> SQL Query:\nSELECT dt.VariableValue, Time.Year, Time.Month, Time.Day, Time.Interval FROM ReportMeterData dt INNER JOIN Time ON Time.timeIndex = dt.TimeIndex WHERE  dt.ReportMeterDataDictionaryIndex=981 AND Time.EnvironmentPeriodIndex = 4Return Code:\n100\n[openstudio.energyplus.SqlFile] <-2> Time series found\n[openstudio.energyplus.SqlFile] <-2> Making time series for envPeriod = 'RUN PERIOD 1', reportingFrequency = 'Hourly', timeSeriesName = 'Heating:Gas', keyValue = ''\n[openstudio.energyplus.SqlFile] <-2> RUN PERIOD 1\n[openstudio.energyplus.SqlFile] <-2> Heating:Gas\n[openstudio.energyplus.SqlFile] <-2> SQL Query:\nSELECT dt.VariableValue, Time.Year, Time.Month, Time.Day, Time.Interval FROM ReportMeterData dt INNER JOIN Time ON Time.timeIndex = dt.TimeIndex WHERE  dt.ReportMeterDataDictionaryIndex=944 AND Time.EnvironmentPeriodIndex = 4Return Code:\n100\n[openstudio.energyplus.SqlFile] <-2> Time series found\n[openstudio.energyplus.SqlFile] <-2> Making time series for envPeriod = 'RUN PERIOD 1', reportingFrequency = 'Hourly', timeSeriesName = 'Cooling:Electricity', keyValue = ''\n[openstudio.energyplus.SqlFile] <-2> Time series found\n[openstudio.energyplus.SqlFile] <-2> Making time series for envPeriod = 'RUN PERIOD 1', reportingFrequency = 'Hourly', timeSeriesName = 'Electricity:Facility', keyValue = ''\n[openstudio.energyplus.SqlFile] <-2> RUN PERIOD 1\n[openstudio.energyplus.SqlFile] <-2> Electricity:Facility\n[openstudio.energyplus.SqlFile] <-2> SQL Query:\nSELECT dt.VariableValue, Time.Year, Time.Month, Time.Day, Time.Interval FROM ReportMeterData dt INNER JOIN Time ON Time.timeIndex = dt.TimeIndex WHERE  dt.ReportMeterDataDictionaryIndex=14 AND Time.EnvironmentPeriodIndex = 4Return Code:\n100\n[openstudio.energyplus.SqlFile] <-2> Time series found\n[openstudio.energyplus.SqlFile] <-2> Making time series for envPeriod = 'RUN PERIOD 1', reportingFrequency = 'Hourly', timeSeriesName = 'Gas:Facility', keyValue = ''\n[openstudio.energyplus.SqlFile] <-2> RUN PERIOD 1\n[openstudio.energyplus.SqlFile] <-2> Gas:Facility\n[openstudio.energyplus.SqlFile] <-2> SQL Query:\nSELECT dt.VariableValue, Time.Year, Time.Month, Time.Day, Time.Interval FROM ReportMeterData dt INNER JOIN Time ON Time.timeIndex = dt.TimeIndex WHERE  dt.ReportMeterDataDictionaryIndex=264 AND Time.EnvironmentPeriodIndex = 4Return Code:\n100\n[openstudio.energyplus.SqlFile] <-2> Time series found\n",
            "step_errors" : [],
            "step_files" : [
               "/mnt/openstudio/analysis_179f9bb9-dd28-4d2c-84f7-5bdfd8f4d421/data_point_0230c80c-b202-44c3-963a-76cf4dc1f345/run/006_dc_timeseries_reports/report_timeseries.csv"
            ],
            "step_info" : [
               "Date Time,Month,Day,Day of Week,Hour,Minute,Site Outdoor Air Drybulb Temperature,Site Outdoor Air Relative Humidity,HeatingElectricity,HeatingGas,CoolingElectricity,ElectricityFacility,GasFacility"
            ],
            "step_result" : "Success",
            "step_values" : [
               {
                  "name" : "energyplus_runtime",
                  "units" : "sec",
                  "value" : 35.009999999999998
               }
            ],
            "step_warnings" : []
         }
      }
   ],
   "updated_at" : "20200426T063132Z",
   "weather_file" : "USA_VA_Arlington-Ronald.Reagan.Washington.Natl.AP.724050_TMY3.epw"
}
